--------------TurbSim v2.00.* User Time Series Input File-----------------------
     Time series input from low-res turbsim run
--------------------------------------------------------------------------------
          3 nComp - Number of velocity components in the file
          1 nPoints - Number of time series points contained in this file (-)
          1 RefPtID - Index of the reference point (1-nPoints)
     Pointyi Pointzi ! nPoints listed in order of increasing height
       (m)     (m)
       -0.33460   94.00000
--------Time Series-------------------------------------------------------------
Elapsed Time         Point01u             Point01v           Point01w
         (s)            (m/s)                (m/s)              (m/s)
	0.00			  10.31113			  -0.15387			 0.07425
	0.25			  10.15618			  -0.08188			 0.07085
	0.50			  10.12486			  -0.34730			 -0.03143
	0.75			  10.28333			  -0.50305			 0.25517
	1.00			  10.27912			  -0.59697			 0.15634
	1.25			  10.40437			  -0.42049			 0.07602
	1.50			  10.69662			  -0.35608			 0.02499
	1.75			  10.83040			  -0.23942			 -0.02840
	2.00			  10.91089			  -0.59478			 0.19283
	2.25			  10.93979			  -0.56546			 0.39435
	2.50			  10.94451			  -0.51780			 0.42811
	2.75			  10.90848			  -0.71203			 0.30328
	3.00			  10.67685			  -0.87735			 0.21445
	3.25			  10.59857			  -0.62489			 0.26229
	3.50			  10.64875			  -0.51780			 0.25506
	3.75			  10.54758			  -0.63027			 0.05432
	4.00			  10.62898			  -0.64922			 0.22895
	4.25			  10.83411			  -0.56806			 0.25697
	4.50			  10.58582			  -0.53136			 0.08366
	4.75			  10.51416			  -0.24760			 0.33306
	5.00			  10.53112			  -0.07650			 0.23974
	5.25			  10.30351			  0.12491			 0.26892
	5.50			  10.17585			  0.16958			 0.37592
	5.75			  10.03303			  0.32034			 0.39750
	6.00			  10.07900			  0.14446			 0.46685
	6.25			  10.28112			  0.31755			 0.43373
	6.50			  10.52902			  0.50480			 0.66945
	6.75			  10.65698			  0.63143			 0.52690
	7.00			  10.79487			  0.41387			 0.57729
	7.25			  10.84385			  0.13728			 0.60322
	7.50			  10.85298			  0.20508			 0.61891
	7.75			  10.82267			  0.29701			 0.58018
	8.00			  10.87847			  0.51577			 0.46598
	8.25			  10.98516			  0.56901			 0.38476
	8.50			  10.92022			  0.59773			 0.46175
	8.75			  10.85358			  0.65516			 0.38349
	9.00			  10.83331			  0.53710			 0.47940
	9.25			  10.90246			  0.55206			 0.49086
	9.50			  10.86232			  0.47130			 0.47831
	9.75			  10.71719			  0.21066			 0.35041
	10.00			  10.86974			  0.55366			 0.17878
	10.25			  10.83913			  0.34487			 0.23588
	10.50			  10.72552			  0.01962			 -0.03953
	10.75			  10.63901			  -0.15068			 0.16492
	11.00			  10.79899			  0.05093			 0.32493
	11.25			  10.76758			  -0.12675			 0.38986
	11.50			  10.57729			  -0.23902			 0.13896
	11.75			  10.74961			  -0.03901			 0.09778
	12.00			  10.59355			  0.00447			 0.29545
	12.25			  10.75724			  -0.02704			 0.23059
	12.50			  10.77591			  -0.27133			 0.22220
	12.75			  10.67404			  -0.22925			 0.24970
	13.00			  10.52862			  -0.12874			 0.16121
	13.25			  10.48757			  -0.19654			 0.34509
	13.50			  10.38550			  -0.12356			 0.31444
	13.75			  10.44461			  -0.41132			 0.09501
	14.00			  10.62827			  -0.44801			 0.16477
	14.25			  10.62747			  -0.36844			 0.34168
	14.50			  10.59907			  -0.42926			 0.36326
	14.75			  10.53173			  -0.28369			 0.27192
	15.00			  10.80902			  -0.13772			 0.26030
	15.25			  10.66310			  -0.25876			 0.47273
	15.50			  10.58693			  -0.43604			 0.54065
	15.75			  10.81364			  -0.35867			 0.37858
	16.00			  10.61513			  -0.18518			 0.11517
	16.25			  10.64534			  0.06788			 0.24985
	16.50			  10.52069			  0.07566			 0.21250
	16.75			  10.53243			  0.09241			 0.49356
	17.00			  10.56715			  0.32393			 0.44838
	17.25			  10.43217			  0.53491			 0.21329
	17.50			  10.28273			  0.39811			 0.13315
	17.75			  10.02249			  0.07685			 0.30796
	18.00			  10.03986			  0.03657			 0.35917
	18.25			  9.97492			  -0.15806			 0.47625
	18.50			  9.87356			  -0.22406			 0.52671
	18.75			  10.00333			  -0.12834			 0.74423
	19.00			  9.96258			  -0.06373			 0.73393
	19.25			  9.90638			  -0.15606			 0.83209
	19.50			  9.95666			  -0.33992			 0.62307
	19.75			  9.74138			  -0.30343			 0.46902
	20.00			  9.81174			  -0.27312			 0.29001
	20.25			  9.81615			  0.09041			 0.03982
	20.50			  9.80461			  0.28444			 0.14712
	20.75			  9.72663			  0.20268			 0.23472
	21.00			  9.65828			  0.21744			 -0.05571
	21.25			  9.68337			  0.11933			 -0.06451
	21.50			  9.71198			  0.21345			 0.23322
	21.75			  9.71499			  0.23698			 0.17189
	22.00			  9.68117			  0.24396			 0.11678
	22.25			  9.45606			  0.16938			 -0.11801
	22.50			  9.32870			  0.14605			 -0.00948
	22.75			  9.51999			  0.14844			 0.14851
	23.00			  9.54688			  0.13588			 0.16368
	23.25			  9.57930			  0.05751			 0.31328
	23.50			  9.42665			  0.09181			 0.29844
	23.75			  9.60871			  0.19371			 0.24472
	24.00			  9.77179			  0.13947			 0.18309
	24.25			  9.66290			  0.18374			 0.10940
	24.50			  9.80461			  0.45654			 0.03795
	24.75			  9.83783			  0.29481			 -0.07470
	25.00			  9.79588			  0.25413			 -0.14165
	25.25			  9.71188			  0.23320			 0.07010
	25.50			  9.64363			  0.00048			 0.21662
	25.75			  9.71137			  0.15163			 -0.02671
	26.00			  9.69672			  0.23878			 0.17518
	26.25			  9.96509			  0.17497			 -0.08044
	26.50			  9.90256			  0.25872			 -0.18931
	26.75			  9.59154			  0.27148			 -0.13626
	27.00			  9.57197			  0.42683			 -0.11359
	27.25			  9.62968			  0.40689			 -0.26982
	27.50			  9.53956			  0.62445			 -0.08122
	27.75			  9.71790			  0.51517			 -0.10007
	28.00			  9.95756			  0.39233			 -0.35419
	28.25			  9.79217			  0.38834			 -0.25169
	28.50			  9.99008			  0.27368			 -0.08377
	28.75			  9.75533			  -0.15566			 0.00277
	29.00			  9.61001			  -0.05376			 -0.05672
	29.25			  9.47743			  0.05173			 -0.19354
	29.50			  9.34104			  0.06429			 -0.15866
	29.75			  9.44853			  0.28963			 -0.05515
	30.00			  9.60790			  0.13409			 0.10434
	30.25			  9.53042			  0.31795			 0.24554
	30.50			  9.59164			  0.19291			 0.24629
	30.75			  9.58030			  -0.05017			 -0.05387
	31.00			  9.68719			  0.03737			 0.03192
	31.25			  9.70395			  0.00606			 -0.12243
	31.50			  9.75824			  0.06469			 -0.14360
	31.75			  9.66792			  -0.27531			 0.03267
	32.00			  9.87296			  -0.15746			 0.13881
	32.25			  9.80571			  0.04295			 -0.05470
	32.50			  9.45796			  0.09321			 0.04293
	32.75			  9.46981			  -0.04280			 0.09557
	33.00			  9.61573			  0.13807			 0.10067
	33.25			  9.52149			  0.31496			 -0.01491
	33.50			  9.60369			  0.36660			 0.03282
	33.75			  9.38891			  0.51317			 0.04462
	34.00			  9.46760			  0.70621			 -0.17140
	34.25			  9.67203			  0.73313			 -0.16747
	34.50			  9.67745			  0.72834			 -0.07287
	34.75			  9.75363			  0.67769			 0.10505
	35.00			  9.72251			  0.63282			 0.09849
	35.25			  9.64604			  0.27467			 0.25558
	35.50			  9.75734			  0.22283			 -0.01502
	35.75			  9.92896			  0.33550			 0.12202
	36.00			  9.63249			  0.32333			 0.16087
	36.25			  9.40427			  0.20927			 -0.04248
	36.50			  9.52832			  0.05113			 -0.17710
	36.75			  9.50594			  -0.03761			 -0.14799
	37.00			  9.58121			  -0.11538			 -0.23112
	37.25			  9.62225			  -0.09903			 -0.29653
	37.50			  9.80561			  -0.04339			 -0.39379
	37.75			  9.96880			  -0.10980			 -0.06032
	38.00			  9.87657			  -0.08746			 -0.12925
	38.25			  10.02019			  0.04694			 -0.04792
	38.50			  9.93759			  -0.02106			 0.02031
	38.75			  10.12848			  0.20029			 -0.00884
	39.00			  10.12496			  0.14087			 -0.10779
	39.25			  10.16290			  0.31874			 -0.19924
	39.50			  10.16531			  0.27108			 -0.15128
	39.75			  10.02249			  0.19172			 -0.06302
	40.00			  10.15447			  0.24556			 0.08006
	40.25			  10.31966			  0.12132			 0.11786
	40.50			  10.28012			  0.05791			 0.09404
	40.75			  10.35640			  0.22681			 -0.04473
	41.00			  10.45244			  0.29641			 -0.15675
	41.25			  10.44000			  0.09899			 -0.09407
	41.50			  10.37065			  -0.03243			 -0.10115
	41.75			  10.32077			  -0.06972			 -0.27780
	42.00			  10.40557			  -0.09644			 -0.01319
	42.25			  10.58070			  -0.03621			 0.04293
	42.50			  10.44532			  0.08922			 -0.07590
	42.75			  10.33120			  0.31535			 -0.06481
	43.00			  10.24871			  0.25094			 -0.29582
	43.25			  10.14022			  0.05033			 -0.10404
	43.50			  10.18488			  -0.06433			 0.05578
	43.75			  10.37165			  -0.21409			 -0.09134
	44.00			  10.24499			  -0.11897			 -0.24618
	44.25			  10.29949			  -0.24042			 -0.28409
	44.50			  10.25644			  -0.20093			 -0.20482
	44.75			  10.14172			  -0.27711			 -0.13547
	45.00			  9.94813			  -0.21868			 -0.17500
	45.25			  10.13550			  -0.29725			 0.08486
	45.50			  10.05230			  -0.12934			 -0.15477
	45.75			  9.98335			  0.00108			 -0.16316
	46.00			  10.03534			  -0.22526			 -0.17841
	46.25			  10.06324			  -0.18598			 -0.32988
	46.50			  10.11161			  -0.09165			 -0.53035
	46.75			  9.76095			  -0.09783			 -0.35745
	47.00			  9.73426			  0.07805			 -0.28814
	47.25			  9.68378			  -0.09843			 -0.29226
	47.50			  9.71900			  -0.15208			 -0.43148
	47.75			  9.67153			  -0.25138			 -0.42968
	48.00			  9.71479			  -0.12755			 -0.34651
	48.25			  9.84586			  -0.14111			 -0.41451
	48.50			  9.84124			  -0.10102			 -0.12247
	48.75			  10.09917			  -0.13094			 -0.11974
	49.00			  10.03735			  0.06948			 -0.35104
	49.25			  10.04126			  0.00606			 -0.43845
	49.50			  9.92825			  -0.17202			 -0.48423
	49.75			  9.94662			  -0.17840			 -0.53263
	50.00			  10.06143			  -0.11638			 -0.64417
	50.25			  9.98887			  -0.21549			 -0.59190
	50.50			  9.92013			  -0.13672			 -0.46156
	50.75			  9.79367			  -0.05815			 -0.35213
	51.00			  9.76788			  -0.15347			 -0.36640
	51.25			  9.55441			  0.04574			 -0.27499
	51.50			  9.41320			  0.18394			 -0.33849
	51.75			  9.43127			  0.17457			 -0.17417
	52.00			  9.43689			  0.02281			 -0.17020
	52.25			  9.22181			  -0.29266			 -0.08609
	52.50			  9.13380			  -0.53415			 0.00877
	52.75			  9.39504			  -0.38858			 -0.21025
	53.00			  9.47191			  -0.17581			 -0.22763
	53.25			  9.64213			  -0.40553			 -0.16556
	53.50			  9.67474			  -0.26774			 0.00176
	53.75			  9.68257			  -0.32038			 0.00648
	54.00			  9.76316			  -0.35528			 -0.04365
	54.25			  9.75393			  -0.17202			 -0.04320
	54.50			  9.55160			  -0.05795			 0.02147
	54.75			  9.56364			  -0.03522			 0.04473
	55.00			  9.51898			  -0.09345			 -0.20047
	55.25			  9.57318			  -0.00890			 -0.21153
	55.50			  9.79427			  0.09221			 -0.01379
	55.75			  9.75664			  0.07386			 0.11419
	56.00			  9.49008			  0.06509			 0.19422
	56.25			  9.64915			  0.17357			 0.23895
	56.50			  9.69552			  0.13867			 0.39933
	56.75			  9.86703			  0.07267			 0.29129
	57.00			  9.75614			  0.15662			 0.09538
	57.25			  9.82538			  0.25533			 -0.16848
	57.50			  9.78765			  0.37338			 -0.02847
	57.75			  9.77902			  0.49383			 -0.15608
	58.00			  9.72904			  0.47489			 -0.13049
	58.25			  9.93428			  0.13568			 -0.14203
	58.50			  9.90919			  0.37199			 -0.13379
	58.75			  9.81796			  0.52275			 -0.03735
	59.00			  9.78133			  0.61607			 0.17713
	59.25			  9.68990			  0.57559			 -0.01517
	59.50			  9.76828			  0.26131			 -0.06751
	59.75			  9.84907			  0.06529			 -0.06193
	60.00			  9.86713			  0.06609			 -0.18789
	60.25			  9.98094			  -0.26195			 -0.16998
	60.50			  9.93217			  -0.25657			 -0.16619
	60.75			  10.02400			  -0.41331			 0.01761
	61.00			  9.98606			  -0.22426			 -0.12124
	61.25			  9.79909			  -0.63326			 -0.22801
	61.50			  9.83492			  -0.72500			 -0.34220
	61.75			  9.51276			  -0.21509			 -0.07725
	62.00			  9.70816			  -0.27831			 -0.24682
	62.25			  10.01336			  -0.55190			 -0.08658
	62.50			  10.11693			  -0.68890			 -0.16503
	62.75			  9.92314			  -0.61751			 -0.07789
	63.00			  9.95545			  -0.81952			 0.01588
	63.25			  9.94622			  -0.39676			 -0.03986
	63.50			  9.85810			  -0.51381			 0.02986
	63.75			  9.60078			  -0.34690			 -0.05043
	64.00			  9.59516			  -0.32896			 -0.11000
	64.25			  9.48847			  -0.42228			 -0.09471
	64.50			  9.50694			  -0.16763			 -0.13083
	64.75			  9.47151			  -0.07929			 -0.15128
	65.00			  9.23175			  -0.23443			 -0.10854
	65.25			  9.35650			  -0.02485			 -0.16121
	65.50			  9.34315			  0.12611			 -0.11502
	65.75			  9.17404			  -0.00052			 -0.15304
	66.00			  9.40869			  -0.05975			 -0.07564
	66.25			  9.54287			  0.02540			 0.22408
	66.50			  9.42304			  0.06030			 -0.10749
	66.75			  9.36904			  -0.05117			 0.08763
	67.00			  9.40327			  -0.00790			 -0.06747
	67.25			  9.42123			  -0.17341			 -0.06347
	67.50			  9.47763			  -0.32616			 -0.04222
	67.75			  9.40036			  -0.22745			 -0.08857
	68.00			  9.31575			  -0.11239			 -0.09572
	68.25			  9.34124			  0.00447			 0.00832
	68.50			  9.36683			  -0.16603			 -0.07358
	68.75			  9.29909			  -0.27232			 -0.02038
	69.00			  9.35690			  -0.21609			 -0.06800
	69.25			  9.65136			  -0.27990			 -0.02540
	69.50			  9.45535			  -0.44960			 0.12993
	69.75			  9.39002			  -0.31580			 -0.10827
	70.00			  9.44060			  -0.30662			 -0.19721
	70.25			  9.59576			  -0.41570			 -0.17691
	70.50			  9.43980			  -0.42807			 0.02046
	70.75			  9.25553			  -0.48590			 0.16166
	71.00			  9.17354			  -0.44801			 0.15518
	71.25			  9.27631			  -0.50524			 0.17901
	71.50			  9.09957			  -0.13712			 0.16814
	71.75			  9.08020			  -0.11718			 0.08512
	72.00			  9.40417			  0.09580			 -0.00746
	72.25			  9.31073			  0.10677			 0.01622
	72.50			  9.26999			  -0.08507			 0.12502
	72.75			  9.31043			  -0.13911			 0.36910
	73.00			  9.14132			  -0.17202			 0.17975
	73.25			  8.96850			  -0.17361			 0.09370
	73.50			  8.90006			  -0.03941			 -0.01124
	73.75			  8.97242			  -0.13672			 0.23131
	74.00			  8.53765			  -0.06513			 0.00903
	74.25			  8.61503			  0.10457			 -0.10127
	74.50			  8.84947			  0.07885			 0.01191
	74.75			  8.99118			  0.22622			 -0.12183
	75.00			  9.17274			  0.03557			 -0.05912
	75.25			  9.21850			  -0.15786			 -0.11966
	75.50			  9.21609			  0.04515			 -0.13015
	75.75			  9.22793			  0.02441			 -0.08392
	76.00			  9.28895			  0.04555			 -0.10250
	76.25			  9.44461			  -0.06074			 -0.14656
	76.50			  9.36071			  0.08802			 0.07688
	76.75			  9.26166			  -0.09983			 -0.10351
	77.00			  9.23145			  -0.16823			 -0.11487
	77.25			  9.15999			  -0.01069			 -0.11880
	77.50			  9.19923			  -0.25358			 -0.17942
	77.75			  9.34506			  -0.31320			 -0.21344
	78.00			  9.39544			  -0.23902			 -0.01169
	78.25			  9.29658			  -0.30523			 -0.11715
	78.50			  9.29016			  -0.12834			 -0.11438
	78.75			  9.39734			  -0.26355			 -0.20849
	79.00			  9.40146			  -0.13911			 -0.25944
	79.25			  9.53404			  0.07227			 -0.13457
	79.50			  9.51005			  0.17696			 -0.15964
	79.75			  9.49279			  0.21126			 -0.06511
	80.00			  9.65959			  -0.09185			 -0.08115
	80.25			  9.51808			  -0.08647			 0.14424
	80.50			  9.33542			  -0.01508			 0.32557
	80.75			  9.55280			  -0.18199			 0.11161
	81.00			  9.64975			  -0.02046			 0.21066
	81.25			  9.76657			  -0.19714			 0.24449
	81.50			  9.85961			  -0.26255			 0.30886
	81.75			  9.75142			  -0.25996			 0.44864
	82.00			  9.89263			  -0.10461			 0.43200
	82.25			  9.92304			  0.02142			 0.26701
	82.50			  9.91089			  -0.04080			 0.07935
	82.75			  9.86453			  0.20348			 -0.03743
	83.00			  9.89233			  0.32253			 0.14761
	83.25			  9.73556			  0.24576			 0.24873
	83.50			  9.65457			  -0.06373			 0.34595
	83.75			  9.68689			  0.05492			 0.22097
	84.00			  9.51085			  0.16799			 0.01465
	84.25			  9.32037			  0.24337			 0.18185
	84.50			  9.29186			  0.03438			 0.27207
	84.75			  9.52541			  -0.00112			 0.28668
	85.00			  9.64022			  -0.22865			 0.14529
	85.25			  9.56154			  0.09001			 0.15885
	85.50			  9.41661			  0.21305			 0.05459
	85.75			  9.38791			  0.30339			 0.10288
	86.00			  9.56334			  0.23300			 0.28076
	86.25			  9.77280			  0.24037			 0.43762
	86.50			  9.70806			  0.07626			 0.39289
	86.75			  9.63620			  0.01723			 0.33085
	87.00			  9.69321			  -0.03183			 0.40076
	87.25			  9.77199			  -0.24002			 0.32695
	87.50			  9.83813			  -0.19674			 0.21834
	87.75			  9.90698			  0.00307			 0.38817
	88.00			  9.69060			  0.15183			 0.47509
	88.25			  9.91410			  0.01484			 0.60498
	88.50			  9.88891			  -0.17062			 0.58508
	88.75			  9.79287			  -0.22446			 0.60221
	89.00			  9.65186			  -0.14210			 0.56493
	89.25			  9.67073			  -0.13911			 0.42848
	89.50			  9.77300			  -0.19535			 0.28050
	89.75			  9.73817			  -0.31520			 0.12603
	90.00			  9.98656			  -0.42149			 -0.02971
	90.25			  9.72844			  -0.50384			 -0.01772
	90.50			  9.70174			  -0.40653			 0.25337
	90.75			  9.70184			  -0.24620			 0.09374
	91.00			  9.76517			  -0.36704			 0.08767
	91.25			  9.76336			  -0.22805			 0.01521
	91.50			  9.80310			  -0.37781			 0.11033
	91.75			  9.64152			  -0.27531			 0.08456
	92.00			  9.61934			  -0.31938			 -0.07920
	92.25			  9.67364			  -0.26275			 -0.07635
	92.50			  9.63390			  -0.09803			 -0.24693
	92.75			  9.65648			  -0.16723			 -0.07853
	93.00			  9.71027			  -0.13493			 -0.06508
	93.25			  9.89734			  -0.36744			 0.10685
	93.50			  9.70796			  -0.43345			 0.11337
	93.75			  9.66491			  -0.25517			 0.22400
	94.00			  9.56916			  -0.19954			 0.04159
	94.25			  9.61954			  -0.07530			 0.03162
	94.50			  9.76517			  -0.15427			 0.12910
	94.75			  9.74058			  -0.10601			 0.15593
	95.00			  9.65889			  -0.10661			 0.08107
	95.25			  9.71268			  -0.20532			 0.05181
	95.50			  9.78313			  -0.37442			 0.12273
	95.75			  9.84696			  -0.26016			 0.22378
	96.00			  9.78454			  -0.56407			 0.51941
	96.25			  9.70104			  -0.43285			 0.38618
	96.50			  9.60088			  -0.12635			 0.15076
	96.75			  9.83181			  -0.22526			 0.03173
	97.00			  9.85238			  -0.12934			 0.14566
	97.25			  10.01597			  -0.12515			 0.21891
	97.50			  10.00935			  -0.24101			 0.20778
	97.75			  10.12536			  -0.38559			 0.08208
	98.00			  10.33321			  -0.41391			 0.38416
	98.25			  10.31495			  -0.28509			 0.26090
	98.50			  10.31274			  -0.27691			 0.25026
	98.75			  10.38189			  -0.32756			 0.09598
	99.00			  10.27410			  -0.09205			 0.07714
	99.25			  10.19341			  -0.17441			 0.05402
	99.50			  10.19431			  -0.19495			 -0.09115
	99.75			  10.40427			  -0.02305			 0.10528
	100.00			  10.21740			  0.01842			 0.30770
	100.25			  10.16922			  -0.29625			 0.28848
	100.50			  10.15126			  -0.29466			 0.22202
	100.75			  10.15838			  -0.32417			 0.35344
	101.00			  10.21067			  -0.07510			 0.31673
	101.25			  10.24801			  0.18454			 0.32849
	101.50			  10.46970			  0.18653			 0.27417
	101.75			  10.32298			  0.13129			 0.15904
	102.00			  10.29257			  0.12072			 -0.01495
	102.25			  10.33371			  0.14246			 0.03117
	102.50			  10.41521			  0.19890			 0.09250
	102.75			  10.31936			  0.14126			 0.04421
	103.00			  10.31665			  0.20368			 0.12712
	103.25			  10.55120			  0.09699			 0.15731
	103.50			  10.29758			  0.15104			 0.38840
	103.75			  10.38731			  0.40210			 0.16807
	104.00			  10.76005			  0.32213			 0.30841
	104.25			  10.62938			  0.11155			 0.22179
	104.50			  10.70144			  0.31515			 0.28960
	104.75			  10.77631			  0.36381			 0.25498
	105.00			  10.73365			  0.41287			 0.06110
	105.25			  10.61523			  0.44976			 0.02963
	105.50			  10.48114			  0.14266			 0.33370
	105.75			  10.44461			  0.11574			 0.43110
	106.00			  10.59786			  0.22283			 0.56665
	106.25			  10.68959			  0.09879			 0.51356
	106.50			  10.58512			  -0.04958			 0.48880
	106.75			  10.55491			  -0.20033			 0.32250
	107.00			  10.46378			  -0.12555			 0.30219
	107.25			  10.46218			  -0.25617			 0.40125
	107.50			  10.41882			  -0.27831			 0.25843
	107.75			  10.67996			  -0.18139			 0.32478
	108.00			  10.52741			  -0.00850			 0.19725
	108.25			  10.55933			  -0.01288			 0.03514
	108.50			  10.52219			  -0.08368			 -0.01386
	108.75			  10.39232			  -0.17461			 0.02566
	109.00			  10.58753			  -0.06692			 -0.06504
	109.25			  10.54839			  -0.09963			 0.06144
	109.50			  10.58723			  -0.33653			 0.15267
	109.75			  10.56063			  -0.55051			 0.12577
	110.00			  10.48114			  -0.32577			 -0.11041
	110.25			  10.27902			  -0.32277			 -0.14480
	110.50			  10.08602			  -0.41231			 -0.08370
	110.75			  10.12235			  -0.49308			 -0.00577
	111.00			  10.38630			  -0.38758			 -0.20864
	111.25			  10.45525			  -0.53116			 -0.02293
	111.50			  10.22312			  -0.49228			 0.09194
	111.75			  10.10860			  -0.42547			 0.20587
	112.00			  10.13520			  -0.40234			 -0.10389
	112.25			  10.11453			  -0.30263			 -0.33119
	112.50			  10.03353			  -0.26215			 -0.04312
	112.75			  10.27360			  -0.29147			 -0.20946
	113.00			  10.25041			  -0.22725			 -0.11224
	113.25			  10.35349			  -0.29366			 -0.20107
	113.50			  10.30260			  -0.33913			 -0.24554
	113.75			  10.07207			  -0.33414			 -0.26952
	114.00			  10.07007			  -0.27990			 -0.24498
	114.25			  10.14022			  -0.32975			 -0.17369
	114.50			  10.04538			  -0.47353			 -0.19122
	114.75			  10.11362			  -0.59637			 -0.24168
	115.00			  10.08191			  -0.82470			 -0.05552
	115.25			  9.96830			  -0.82710			 -0.15177
	115.50			  9.85589			  -0.58122			 -0.14375
	115.75			  9.97884			  -0.74912			 -0.17350
	116.00			  9.97944			  -0.59099			 -0.04631
	116.25			  10.14283			  -0.52698			 -0.03548
	116.50			  10.19140			  -0.42926			 0.05166
	116.75			  10.17956			  -0.35468			 0.03323
	117.00			  10.01196			  -0.33474			 0.16795
	117.25			  10.10860			  -0.45778			 0.32010
	117.50			  10.27430			  -0.38400			 0.17987
	117.75			  10.19742			  -0.50943			 0.17204
	118.00			  10.25262			  -0.45858			 0.08107
	118.25			  10.34024			  -0.27970			 0.05889
	118.50			  10.10559			  -0.16324			 0.17751
	118.75			  9.98837			  0.02142			 0.06429
	119.00			  10.12627			  -0.24301			 0.15372
	119.25			  10.17805			  -0.18378			 0.05743
	119.50			  10.24269			  -0.31201			 -0.07306
	119.75			  10.36202			  -0.25318			 -0.19283
	120.00			  10.35298			  -0.03562			 -0.22988
	120.25			  10.20314			  -0.08667			 -0.13154
	120.50			  10.25092			  -0.17182			 -0.12142
	120.75			  10.06485			  -0.02285			 -0.04462
	121.00			  10.04889			  -0.07929			 0.05743
	121.25			  10.07237			  -0.37343			 -0.14832
	121.50			  10.08713			  -0.42567			 -0.18376
	121.75			  10.27560			  -0.43245			 -0.08632
	122.00			  10.32719			  -0.40553			 -0.31568
	122.25			  10.09626			  -0.63725			 -0.17635
	122.50			  10.14965			  -0.42507			 -0.29440
	122.75			  9.98466			  -0.60914			 -0.35685
	123.00			  9.82368			  -0.68471			 -0.19601
	123.25			  9.63088			  -0.68810			 -0.23558
	123.50			  9.58863			  -0.56506			 -0.34996
	123.75			  9.70445			  -0.43684			 -0.14398
	124.00			  9.95626			  -0.37043			 0.07515
	124.25			  9.71318			  -0.56327			 0.17620
	124.50			  9.56826			  -0.43883			 -0.01716
	124.75			  9.63610			  -0.14649			 -0.17013
	125.00			  9.73004			  -0.16723			 -0.02712
	125.25			  9.64423			  -0.04280			 0.01098
	125.50			  9.65969			  -0.08348			 -0.11045
	125.75			  9.82378			  0.15024			 -0.15885
	126.00			  9.81364			  0.14465			 -0.09516
	126.25			  9.84315			  0.32552			 -0.31058
	126.50			  10.02169			  0.41127			 -0.33557
	126.75			  10.16631			  0.37239			 -0.31736
	127.00			  10.14283			  0.31456			 -0.47389
	127.25			  10.08813			  0.67330			 -0.47381
	127.50			  10.13510			  0.46950			 -0.22108
	127.75			  10.37095			  0.58696			 -0.23820
	128.00			  10.51818			  0.62824			 -0.00982
	128.25			  10.47151			  0.55306			 -0.08718
	128.50			  10.42835			  0.56781			 -0.35767
	128.75			  10.66721			  0.64539			 -0.39754
	129.00			  10.69712			  0.49024			 -0.27147
	129.25			  10.29126			  0.59214			 -0.13330
	129.50			  10.40567			  0.68208			 -0.19957
	129.75			  10.40397			  0.37977			 0.00420
	130.00			  10.49509			  0.33310			 0.00423
	130.25			  10.32729			  0.40011			 -0.01757
	130.50			  10.13891			  0.35185			 -0.01772
	130.75			  10.12265			  0.47887			 -0.12476
	131.00			  9.97151			  0.53631			 -0.20759
	131.25			  10.02099			  0.43281			 0.08819
	131.50			  10.02189			  0.31157			 0.03046
	131.75			  10.12526			  0.53690			 0.06834
	132.00			  10.09726			  0.64319			 0.05219
	132.25			  10.22442			  0.74669			 0.09966
	132.50			  10.23927			  0.74210			 0.22913
	132.75			  10.19662			  0.85597			 0.47029
	133.00			  10.21318			  0.73472			 0.40870
	133.25			  10.05090			  0.49961			 0.48610
	133.50			  9.81565			  0.51457			 0.59632
	133.75			  9.76226			  0.31595			 0.38589
	134.00			  9.75312			  0.41706			 0.18425
	134.25			  9.80802			  0.23260			 0.23262
	134.50			  9.75122			  0.21664			 0.14990
	134.75			  9.92846			  0.11115			 0.11498
	135.00			  9.94883			  0.11873			 0.29054
	135.25			  10.02821			  0.17935			 0.23636
	135.50			  9.91932			  0.27049			 0.14330
	135.75			  9.80160			  0.25693			 0.14259
	136.00			  9.88430			  0.25992			 0.37719
	136.25			  10.00142			  0.33071			 0.38446
	136.50			  9.98436			  0.03837			 0.30579
	136.75			  9.89835			  0.07865			 0.08834
	137.00			  10.04267			  0.26271			 0.17788
	137.25			  10.15618			  0.55366			 0.06523
	137.50			  9.89403			  0.38435			 -0.20759
	137.75			  9.95876			  0.27388			 -0.27566
	138.00			  9.94130			  0.01344			 -0.08950
	138.25			  9.90236			  -0.07729			 -0.08310
	138.50			  10.10138			  -0.02166			 -0.06792
	138.75			  10.10951			  -0.08667			 -0.14930
	139.00			  10.15025			  -0.01827			 -0.11663
	139.25			  10.18648			  0.17716			 -0.03548
	139.50			  10.18127			  -0.01308			 0.11674
	139.75			  10.18438			  0.13628			 0.19051
	140.00			  10.01095			  0.20607			 -0.17803
	140.25			  9.85489			  0.46432			 -0.19388
	140.50			  9.74610			  0.58297			 -0.35033
	140.75			  9.76336			  0.45175			 -0.15233
	141.00			  9.72121			  0.44816			 -0.06766
	141.25			  9.78113			  0.24875			 -0.13974
	141.50			  9.79247			  -0.07470			 -0.00532
	141.75			  9.77862			  0.10497			 0.38394
	142.00			  9.85579			  0.24117			 0.13551
	142.25			  10.10168			  0.21764			 0.14536
	142.50			  10.14905			  0.20946			 0.03169
	142.75			  10.09696			  0.19052			 0.15649
	143.00			  10.00905			  0.39353			 0.15375
	143.25			  9.87496			  0.08343			 0.17796
	143.50			  9.83131			  0.05452			 0.15222
	143.75			  9.94491			  0.21046			 0.23569
	144.00			  9.99670			  0.21525			 0.24135
	144.25			  9.97914			  0.08802			 0.04526
	144.50			  9.98556			  0.12970			 0.06110
	144.75			  9.81635			  0.27288			 0.18489
	145.00			  9.91059			  0.37159			 0.23168
	145.25			  9.85469			  0.44876			 0.04803
	145.50			  9.74710			  0.65436			 0.13105
	145.75			  9.90066			  0.58796			 0.16518
	146.00			  9.92324			  0.58975			 0.07369
	146.25			  9.71649			  0.48326			 -0.01671
	146.50			  9.49620			  0.37877			 0.06744
	146.75			  9.52812			  0.35165			 -0.20347
	147.00			  9.71168			  0.26869			 -0.24862
	147.25			  9.84947			  0.46212			 -0.12483
	147.50			  9.65126			  0.31077			 -0.28263
	147.75			  9.87677			  0.25194			 -0.13697
	148.00			  10.07097			  0.06529			 -0.22505
	148.25			  9.97051			  -0.04100			 -0.09846
	148.50			  10.16220			  -0.07012			 -0.04638
	148.75			  10.35941			  -0.29805			 0.08872
	149.00			  10.40316			  -0.34910			 0.10183
	149.25			  10.16571			  0.13129			 0.06766
	149.50			  10.06766			  0.21844			 0.04117
	149.75			  10.17936			  0.29581			 0.17736
	150.00			  10.24590			  0.32652			 0.14158
	150.25			  9.98325			  0.24715			 -0.08752
	150.50			  9.76948			  0.52713			 -0.02990
	150.75			  9.75102			  0.61886			 0.02334
	151.00			  9.73054			  0.59234			 0.02608
	151.25			  9.53976			  0.41048			 0.18886
	151.50			  9.60820			  0.44218			 -0.00843
	151.75			  9.37426			  0.45016			 0.03387
	152.00			  9.40367			  0.35284			 0.10344
	152.25			  9.37155			  0.32572			 0.12311
	152.50			  9.39775			  0.16460			 0.08958
	152.75			  9.38550			  0.22602			 0.17125
	153.00			  9.55311			  0.27886			 0.13352
	153.25			  9.62747			  0.49602			 0.34194
	153.50			  9.43307			  0.38694			 0.50026
	153.75			  9.64112			  0.45574			 0.43545
	154.00			  9.63982			  0.18494			 0.52184
	154.25			  9.61192			  0.37757			 0.26019
	154.50			  9.46429			  0.48426			 0.02188
	154.75			  9.40768			  0.39771			 0.02353
	155.00			  9.31374			  0.25513			 -0.09138
	155.25			  9.48777			  0.27547			 0.07913
	155.50			  9.63691			  0.27766			 0.17762
	155.75			  9.75041			  0.21644			 -0.04440
	156.00			  9.69512			  0.01005			 -0.16732
	156.25			  9.64564			  0.29641			 -0.35992
	156.50			  9.54859			  0.31037			 -0.27196
	156.75			  9.46790			  0.04235			 -0.16863
	157.00			  9.73115			  0.04654			 0.11311
	157.25			  9.68839			  0.13548			 0.09864
	157.50			  9.58221			  0.27447			 -0.07156
	157.75			  9.44933			  0.15163			 0.10213
	158.00			  9.48847			  0.07346			 0.28574
	158.25			  9.43608			  0.29860			 0.17462
	158.50			  9.54146			  0.04196			 0.29694
	158.75			  9.64463			  0.16320			 0.20474
	159.00			  9.64835			  0.36481			 0.21418
	159.25			  9.61704			  0.48246			 0.15001
	159.50			  9.57438			  0.54767			 0.10471
	159.75			  9.56655			  0.58995			 0.17766
	160.00			  9.80100			  0.50759			 0.00626
	160.25			  9.79457			  0.52135			 -0.11149
	160.50			  9.65527			  0.57519			 -0.10007
	160.75			  9.71198			  0.53192			 -0.02488
	161.00			  9.83713			  0.38375			 0.16556
	161.25			  9.88550			  0.30179			 0.12064
	161.50			  9.97241			  0.26610			 0.16147
	161.75			  10.25573			  0.22721			 -0.08036
	162.00			  10.15919			  0.22781			 -0.17665
	162.25			  10.09696			  0.14605			 -0.28278
	162.50			  10.20104			  0.08244			 -0.27226
	162.75			  10.37526			  0.13030			 -0.06365
	163.00			  10.73978			  -0.09185			 -0.04739
	163.25			  10.76065			  0.14465			 -0.06219
	163.50			  10.38510			  0.09161			 -0.08445
	163.75			  10.22924			  0.22542			 -0.08036
	164.00			  10.38680			  0.18553			 -0.05852
	164.25			  10.33743			  0.16918			 -0.08209
	164.50			  10.36784			  0.06369			 0.13959
	164.75			  10.47422			  0.17257			 0.19459
	165.00			  10.29528			  0.41147			 -0.05728
	165.25			  10.20696			  0.46013			 -0.06639
	165.50			  10.27400			  0.33211			 0.04166
	165.75			  10.04698			  0.24576			 0.23610
	166.00			  10.15668			  0.20687			 0.04529
	166.25			  10.21348			  0.05392			 -0.09580
	166.50			  10.21629			  -0.00371			 -0.03192
	166.75			  10.32448			  0.21405			 -0.19440
	167.00			  10.23034			  0.27148			 -0.23389