--------------TurbSim v2.00.* User Time Series Input File-----------------------
     Time series input from low-res turbsim run
--------------------------------------------------------------------------------
          3 nComp - Number of velocity components in the file
          1 nPoints - Number of time series points contained in this file (-)
          1 RefPtID - Index of the reference point (1-nPoints)
     Pointyi Pointzi ! nPoints listed in order of increasing height
       (m)     (m)
       0.67606   94.00000
--------Time Series-------------------------------------------------------------
Elapsed Time         Point01u             Point01v           Point01w
         (s)            (m/s)                (m/s)              (m/s)
	0.00			  9.40918			  -0.09317			 -0.01526
	0.25			  9.35695			  -0.01709			 -0.02362
	0.50			  9.41890			  -0.04890			 0.09466
	0.75			  9.48521			  0.04429			 0.02565
	1.00			  9.50883			  0.14101			 -0.06634
	1.25			  9.42962			  -0.00128			 0.05650
	1.50			  9.38874			  0.06494			 0.08448
	1.75			  9.40700			  0.29577			 -0.08925
	2.00			  9.43198			  0.05359			 0.00421
	2.25			  9.53689			  0.15738			 0.06514
	2.50			  9.62827			  0.33353			 0.23753
	2.75			  9.65044			  0.39659			 0.19835
	3.00			  9.69876			  0.36813			 0.10991
	3.25			  9.67360			  0.20444			 0.06170
	3.50			  9.70122			  0.01118			 0.09191
	3.75			  9.68014			  -0.11940			 0.04131
	4.00			  9.68096			  -0.17074			 0.12066
	4.25			  9.58149			  -0.15623			 0.13786
	4.50			  9.45605			  -0.20645			 0.08276
	4.75			  9.48648			  -0.02416			 0.09699
	5.00			  9.47658			  0.02383			 0.00328
	5.25			  9.34378			  -0.02807			 0.10372
	5.50			  9.17618			  0.01676			 0.16092
	5.75			  9.21397			  0.01788			 0.10624
	6.00			  9.30163			  0.13785			 0.08330
	6.25			  9.31671			  0.22621			 -0.00884
	6.50			  9.25648			  0.33335			 -0.22631
	6.75			  9.43080			  0.54689			 -0.12731
	7.00			  9.35195			  0.68993			 0.09268
	7.25			  9.26348			  0.62613			 0.00242
	7.50			  9.37203			  0.56158			 -0.00824
	7.75			  9.54434			  0.41222			 0.13355
	8.00			  9.38810			  0.41984			 0.22103
	8.25			  9.45923			  0.35120			 0.16581
	8.50			  9.54534			  0.41780			 0.02600
	8.75			  9.47022			  0.34451			 0.22349
	9.00			  9.42889			  0.43175			 0.09112
	9.25			  9.59939			  0.47713			 -0.06225
	9.50			  9.78706			  0.31568			 -0.16291
	9.75			  9.78042			  0.34004			 -0.13879
	10.00			  9.79341			  0.53740			 -0.05029
	10.25			  9.84864			  0.49332			 -0.04764
	10.50			  9.91886			  0.23235			 -0.20953
	10.75			  9.92004			  0.18845			 -0.02703
	11.00			  9.90659			  0.16538			 0.10541
	11.25			  9.76507			  0.26992			 -0.09939
	11.50			  9.75136			  0.24946			 -0.11780
	11.75			  9.79378			  0.31958			 -0.09087
	12.00			  9.81521			  0.21877			 -0.02355
	12.25			  9.84056			  0.20630			 -0.20430
	12.50			  9.69495			  0.06382			 0.00810
	12.75			  9.66261			  0.11869			 0.01821
	13.00			  9.74191			  0.17282			 -0.06765
	13.25			  9.87535			  0.17561			 0.10394
	13.50			  9.77888			  0.27587			 0.25173
	13.75			  9.77761			  0.32051			 0.21596
	14.00			  9.73900			  0.27010			 0.13738
	14.25			  9.57268			  0.30749			 -0.03966
	14.50			  9.60438			  0.20165			 -0.15012
	14.75			  9.73755			  0.26824			 -0.32129
	15.00			  9.76144			  0.20872			 -0.41417
	15.25			  9.84501			  0.28778			 -0.32668
	15.50			  9.83820			  0.25318			 -0.32978
	15.75			  9.74718			  0.16724			 -0.01529
	16.00			  9.66606			  0.42765			 -0.27570
	16.25			  9.57913			  0.36832			 -0.24600
	16.50			  9.59703			  0.60994			 -0.12763
	16.75			  9.75345			  0.40868			 -0.37930
	17.00			  9.82076			  0.44384			 -0.10115
	17.25			  9.65416			  0.47918			 0.04354
	17.50			  9.64535			  0.61143			 0.12535
	17.75			  9.60348			  0.79893			 0.12921
	18.00			  9.80531			  0.69067			 -0.06809
	18.25			  9.82412			  0.54205			 -0.11850
	18.50			  9.91177			  0.50392			 -0.14910
	18.75			  10.08154			  0.40757			 -0.20841
	19.00			  10.05093			  0.44998			 -0.30298
	19.25			  10.20399			  0.27978			 -0.35470
	19.50			  10.20036			  0.13804			 -0.37665
	19.75			  10.19445			  -0.01040			 -0.33217
	20.00			  9.91586			  0.17412			 -0.27060
	20.25			  9.74518			  0.12651			 -0.32164
	20.50			  9.63064			  0.14994			 -0.14734
	20.75			  9.79060			  0.04820			 -0.26450
	21.00			  9.82911			  0.18342			 -0.44585
	21.25			  9.93993			  0.09526			 -0.29743
	21.50			  9.96337			  0.15385			 -0.14629
	21.75			  9.82920			  0.11125			 -0.16336
	22.00			  9.83493			  0.22044			 -0.28227
	22.25			  9.95846			  0.32963			 -0.31533
	22.50			  10.00279			  0.29559			 -0.33970
	22.75			  10.04194			  0.09693			 -0.12294
	23.00			  10.03840			  0.18491			 -0.21138
	23.25			  9.83910			  0.09619			 -0.31743
	23.50			  9.63554			  0.16482			 -0.17906
	23.75			  9.52790			  0.09935			 -0.23196
	24.00			  9.61728			  -0.07383			 -0.21371
	24.25			  9.69068			  -0.06806			 -0.22765
	24.50			  9.63518			  -0.07736			 -0.33425
	24.75			  9.53844			  -0.14693			 -0.27899
	25.00			  9.48593			  0.07256			 -0.13251
	25.25			  9.39837			  0.12316			 -0.14789
	25.50			  9.34287			  0.11609			 -0.21128
	25.75			  9.53589			  -0.13205			 -0.12721
	26.00			  9.76507			  -0.12665			 -0.15966
	26.25			  9.93494			  -0.01412			 -0.21151
	26.50			  9.89034			  -0.11010			 -0.18187
	26.75			  9.83302			  -0.09298			 -0.05125
	27.00			  9.97563			  0.00839			 -0.11879
	27.25			  9.95047			  0.03611			 -0.17360
	27.50			  9.84946			  0.17580			 -0.14144
	27.75			  9.72329			  0.27978			 -0.29858
	28.00			  9.68641			  0.25634			 -0.25844
	28.25			  9.77334			  0.21858			 -0.40804
	28.50			  9.98144			  -0.00091			 -0.33693
	28.75			  9.93076			  0.09395			 -0.34063
	29.00			  9.94438			  0.12409			 -0.34216
	29.25			  9.90124			  0.09749			 -0.13678
	29.50			  9.96745			  0.05471			 -0.12361
	29.75			  9.95610			  0.06345			 -0.09483
	30.00			  9.94638			  0.19645			 -0.21894
	30.25			  9.92903			  0.14604			 -0.09448
	30.50			  10.02741			  0.35567			 -0.15203
	30.75			  10.18982			  0.32479			 -0.14342
	31.00			  10.24968			  0.29726			 -0.19638
	31.25			  10.33988			  0.21765			 -0.15743
	31.50			  10.37449			  0.14845			 -0.08561
	31.75			  10.36922			  0.28034			 -0.01053
	32.00			  10.63764			  0.33856			 0.02619
	32.25			  10.49530			  0.26508			 -0.00728
	32.50			  10.46660			  0.28201			 -0.04796
	32.75			  10.35151			  0.04801			 0.12985
	33.00			  10.23796			  0.01564			 0.26777
	33.25			  10.17992			  0.11814			 0.25772
	33.50			  10.22416			  0.09581			 0.27473
	33.75			  10.32544			  0.09563			 0.25067
	34.00			  10.48794			  0.04801			 0.17298
	34.25			  10.36759			  0.03239			 0.06371
	34.50			  10.36740			  -0.01263			 0.08256
	34.75			  10.22734			  0.01416			 0.13463
	35.00			  10.18573			  -0.14116			 0.18801
	35.25			  10.04076			  -0.08908			 -0.05182
	35.50			  10.05720			  0.03983			 -0.05061
	35.75			  10.04576			  0.04392			 -0.03357
	36.00			  10.09453			  0.07405			 0.03040
	36.25			  10.11252			  0.15999			 0.15505
	36.50			  10.06874			  0.14250			 -0.03695
	36.75			  10.02405			  0.29559			 -0.12176
	37.00			  10.08209			  0.40124			 -0.28521
	37.25			  10.16539			  0.29615			 -0.23400
	37.50			  10.09308			  0.23104			 -0.12616
	37.75			  9.98871			  0.27010			 -0.09429
	38.00			  10.10307			  0.45295			 -0.02926
	38.25			  10.01814			  0.37260			 -0.03300
	38.50			  9.87244			  0.24983			 0.05749
	38.75			  9.89224			  0.23328			 0.03445
	39.00			  9.84265			  0.17970			 0.04093
	39.25			  9.80295			  0.46616			 0.14283
	39.50			  9.68050			  0.30080			 0.10943
	39.75			  9.74809			  0.42021			 0.09619
	40.00			  9.87326			  0.48123			 0.12803
	40.25			  9.86844			  0.20556			 -0.00613
	40.50			  9.93484			  0.31159			 -0.12204
	40.75			  9.90759			  0.42654			 -0.22743
	41.00			  9.82139			  0.45444			 -0.15925
	41.25			  9.79941			  0.58948			 0.00194
	41.50			  9.82557			  0.52810			 0.18230
	41.75			  9.94602			  0.31252			 0.15933
	42.00			  10.10162			  0.31586			 0.08397
	42.25			  9.91413			  0.33130			 0.11613
	42.50			  10.00588			  0.31270			 0.23973
	42.75			  10.01914			  0.29168			 0.22040
	43.00			  9.98272			  0.38078			 0.11173
	43.25			  9.99552			  0.45221			 0.03978
	43.50			  10.10498			  0.49834			 0.05388
	43.75			  9.97618			  0.39287			 0.28366
	44.00			  9.89851			  0.27029			 0.21845
	44.25			  9.89924			  0.18733			 0.22426
	44.50			  9.88171			  0.04057			 0.04935
	44.75			  10.01097			  0.04336			 -0.09212
	45.00			  9.95120			  0.00300			 -0.08328
	45.25			  9.83765			  -0.13242			 -0.18525
	45.50			  9.77797			  -0.05597			 -0.14795
	45.75			  9.74754			  -0.23696			 -0.07827
	46.00			  9.73419			  -0.32791			 -0.06008
	46.25			  9.74918			  -0.15288			 0.05404
	46.50			  9.93830			  -0.18655			 -0.01385
	46.75			  9.89342			  -0.09708			 -0.08111
	47.00			  9.90360			  -0.31322			 -0.13337
	47.25			  9.86408			  -0.39711			 -0.15724
	47.50			  9.86617			  -0.16237			 -0.16910
	47.75			  10.02831			  0.00188			 -0.27280
	48.00			  10.11752			  -0.06620			 -0.17603
	48.25			  9.98780			  -0.12405			 -0.11033
	48.50			  9.91813			  -0.10415			 -0.14084
	48.75			  9.85373			  -0.06899			 -0.15172
	49.00			  9.83783			  -0.08517			 -0.24813
	49.25			  9.88661			  -0.13186			 -0.04171
	49.50			  9.92476			  -0.21389			 -0.05361
	49.75			  9.96627			  -0.42371			 -0.16700
	50.00			  10.05838			  -0.23119			 -0.17507
	50.25			  10.18937			  -0.06825			 -0.09796
	50.50			  10.00597			  -0.15530			 0.05848
	50.75			  9.93875			  -0.09168			 0.04294
	51.00			  10.09453			  -0.12963			 0.20269
	51.25			  10.20118			  -0.06992			 0.26117
	51.50			  10.31536			  -0.07197			 0.19777
	51.75			  10.45570			  -0.00351			 0.21832
	52.00			  10.44116			  -0.10880			 0.20974
	52.25			  10.39947			  -0.15958			 0.13942
	52.50			  10.46814			  0.00876			 0.15295
	52.75			  10.29819			  -0.00184			 0.13655
	53.00			  10.31417			  -0.28848			 0.20215
	53.25			  10.20717			  -0.27639			 0.14580
	53.50			  10.10017			  -0.34614			 0.19040
	53.75			  10.30364			  -0.45180			 0.03199
	54.00			  10.25740			  -0.42929			 -0.11413
	54.25			  10.33707			  -0.40753			 -0.12278
	54.50			  10.30591			  -0.18450			 -0.08328
	54.75			  10.35042			  -0.11642			 0.00819
	55.00			  10.31354			  -0.23193			 0.04045
	55.25			  10.35405			  -0.44770			 -0.03944
	55.50			  10.28302			  -0.53587			 0.07692
	55.75			  10.25077			  -0.39469			 -0.02547
	56.00			  10.24732			  -0.22375			 -0.11541
	56.25			  10.13496			  -0.32457			 0.06186
	56.50			  10.07228			  -0.23379			 0.11220
	56.75			  10.11388			  -0.23714			 0.05969
	57.00			  10.20890			  -0.13372			 -0.02770
	57.25			  10.25059			  -0.09336			 -0.19610
	57.50			  10.19427			  -0.02918			 -0.23655
	57.75			  10.16103			  0.04838			 -0.10660
	58.00			  10.14231			  -0.08573			 -0.04554
	58.25			  9.92158			  -0.11289			 -0.10386
	58.50			  9.87335			  -0.17018			 0.04195
	58.75			  9.79514			  -0.05783			 0.06364
	59.00			  9.94602			  0.17543			 0.01260
	59.25			  10.03486			  0.12967			 0.17369
	59.50			  9.95601			  0.08019			 0.05947
	59.75			  9.94756			  0.09916			 0.07794
	60.00			  10.01732			  -0.20496			 0.03640
	60.25			  9.99107			  -0.30020			 -0.12373
	60.50			  9.87816			  0.04857			 -0.20264
	60.75			  9.86917			  -0.13000			 -0.19852
	61.00			  9.84910			  -0.06769			 -0.16939
	61.25			  9.76798			  -0.00072			 0.01926
	61.50			  9.73691			  -0.11903			 -0.06091
	61.75			  9.70067			  0.00616			 -0.02786
	62.00			  9.72047			  0.08112			 -0.01334
	62.25			  9.85019			  0.23495			 -0.03705
	62.50			  9.94084			  0.39641			 -0.11308
	62.75			  9.90024			  0.32051			 -0.20455
	63.00			  9.95892			  0.27513			 -0.14307
	63.25			  10.02350			  0.06828			 -0.28195
	63.50			  10.09199			  0.06494			 -0.21441
	63.75			  10.17411			  0.06717			 -0.30792
	64.00			  10.01087			  0.01453			 -0.33916
	64.25			  10.05493			  -0.00277			 -0.28782
	64.50			  10.02395			  -0.07978			 -0.38683
	64.75			  10.01687			  -0.17576			 -0.34835
	65.00			  9.92721			  -0.17111			 -0.25780
	65.25			  9.81939			  -0.14842			 -0.34401
	65.50			  9.80468			  -0.19269			 -0.10111
	65.75			  9.76925			  -0.16367			 0.06001
	66.00			  9.81712			  -0.13037			 0.09364
	66.25			  9.80286			  -0.13353			 -0.05300
	66.50			  9.75408			  -0.40102			 -0.10590
	66.75			  9.80649			  -0.39953			 -0.16247
	67.00			  9.84056			  -0.35842			 -0.26310
	67.25			  9.82512			  -0.30094			 -0.28045
	67.50			  9.78124			  -0.38502			 -0.32515
	67.75			  10.06156			  -0.58238			 -0.26562
	68.00			  10.18601			  -0.37237			 -0.22251
	68.25			  10.19809			  -0.38000			 -0.23582
	68.50			  10.25023			  -0.30504			 -0.35042
	68.75			  10.29038			  -0.33108			 -0.35151
	69.00			  10.32771			  -0.16497			 -0.38351
	69.25			  10.37603			  -0.46352			 -0.18158
	69.50			  10.32907			  -0.59577			 -0.06222
	69.75			  10.32644			  -0.67240			 -0.26367
	70.00			  10.26358			  -0.77099			 -0.19689
	70.25			  10.21144			  -0.85172			 -0.23489
	70.50			  10.10180			  -0.88464			 -0.49601
	70.75			  10.07382			  -0.89692			 -0.28256
	71.00			  10.11488			  -0.65287			 -0.37572
	71.25			  10.13323			  -0.62572			 -0.10673
	71.50			  9.88334			  -0.61567			 -0.15909
	71.75			  9.83329			  -0.63409			 -0.28636
	72.00			  9.78760			  -0.63353			 -0.44298
	72.25			  9.75526			  -0.79182			 -0.29551
	72.50			  9.75617			  -0.75555			 -0.11333
	72.75			  9.94874			  -0.76708			 0.04875
	73.00			  9.88625			  -0.78122			 -0.22637
	73.25			  9.87698			  -0.69063			 -0.02011
	73.50			  10.00588			  -0.76094			 0.07772
	73.75			  9.92276			  -0.71760			 -0.25573
	74.00			  9.96773			  -0.53308			 -0.18838
	74.25			  9.93167			  -0.50276			 -0.14269
	74.50			  9.99607			  -0.46296			 -0.09789
	74.75			  9.92340			  -0.34633			 -0.22283
	75.00			  9.92903			  -0.23007			 -0.11716
	75.25			  9.79868			  -0.40195			 -0.22041
	75.50			  9.89987			  -0.50239			 -0.33874
	75.75			  10.00888			  -0.59726			 -0.37445
	76.00			  10.09181			  -0.46593			 -0.34659
	76.25			  10.11079			  -0.39376			 -0.28208
	76.50			  10.06710			  -0.32996			 -0.42853
	76.75			  10.04430			  -0.30578			 -0.39534
	77.00			  10.10534			  -0.16590			 -0.43928
	77.25			  10.09335			  -0.24421			 -0.24035
	77.50			  10.08154			  -0.37981			 -0.18024
	77.75			  10.13477			  -0.55168			 -0.12303
	78.00			  10.26785			  -0.71184			 -0.07849
	78.25			  10.30872			  -0.69714			 -0.09320
	78.50			  10.41537			  -0.54145			 -0.15299
	78.75			  10.39538			  -0.47821			 -0.16512
	79.00			  10.42245			  -0.55968			 -0.15219
	79.25			  10.41028			  -0.66236			 -0.14875
	79.50			  10.45452			  -0.70254			 -0.12744
	79.75			  10.44698			  -0.79461			 0.01256
	80.00			  10.20290			  -0.68487			 0.08780
	80.25			  10.01787			  -0.73155			 0.16893
	80.50			  10.19382			  -0.70682			 0.09494
	80.75			  10.25513			  -0.53717			 0.05522
	81.00			  10.52282			  -0.46426			 0.12899
	81.25			  10.57315			  -0.41459			 0.08563
	81.50			  10.35987			  -0.39953			 -0.10746
	81.75			  10.29991			  -0.26690			 -0.26128
	82.00			  10.32099			  -0.04351			 -0.13723
	82.25			  10.40465			  0.08149			 -0.23827
	82.50			  10.65544			  0.10660			 -0.30579
	82.75			  10.62411			  0.13636			 -0.14667
	83.00			  10.56461			  0.01006			 -0.11585
	83.25			  10.49921			  -0.01412			 -0.02955
	83.50			  10.51610			  0.06549			 0.03222
	83.75			  10.56852			  -0.18636			 0.03972
	84.00			  10.54136			  -0.12702			 0.15620
	84.25			  10.50175			  -0.14804			 0.13298
	84.50			  10.54708			  -0.13428			 0.20546
	84.75			  10.47804			  -0.40250			 0.19940
	85.00			  10.50148			  -0.24086			 0.13205
	85.25			  10.54908			  -0.28495			 0.10219
	85.50			  10.44389			  -0.55206			 0.17889
	85.75			  10.46387			  -0.60842			 0.05324
	86.00			  10.46751			  -0.58814			 -0.14396
	86.25			  10.36023			  -0.81935			 -0.01937
	86.50			  10.34460			  -0.99904			 -0.31258
	86.75			  10.30600			  -0.96462			 -0.32936
	87.00			  10.30909			  -1.09557			 -0.46107
	87.25			  10.29610			  -1.13929			 -0.32818
	87.50			  10.14522			  -1.12813			 -0.21336
	87.75			  10.07936			  -0.89524			 -0.14763
	88.00			  10.17610			  -0.72988			 -0.14486
	88.25			  10.16920			  -0.79833			 -0.16237
	88.50			  10.00797			  -0.94509			 -0.04815
	88.75			  10.00324			  -0.81730			 -0.11362
	89.00			  10.10780			  -0.80001			 0.01378
	89.25			  10.10198			  -0.66794			 -0.15440
	89.50			  10.05293			  -0.56098			 -0.31233
	89.75			  10.25086			  -0.56415			 -0.22449
	90.00			  10.03813			  -0.55987			 -0.29331
	90.25			  10.09544			  -0.68673			 -0.11563
	90.50			  10.09662			  -0.79629			 -0.03609
	90.75			  10.20254			  -0.79945			 -0.06506
	91.00			  10.22170			  -0.89822			 0.10238
	91.25			  10.29946			  -0.88315			 0.06173
	91.50			  10.27121			  -0.81805			 -0.07894
	91.75			  10.28583			  -0.94807			 -0.04120
	92.00			  10.18056			  -0.75592			 -0.03922
	92.25			  10.16766			  -0.69156			 -0.03871
	92.50			  10.13932			  -0.79182			 0.04415
	92.75			  10.16139			  -0.85172			 0.09395
	93.00			  10.30809			  -0.67036			 -0.08695
	93.25			  10.23215			  -0.48081			 -0.14406
	93.50			  10.44507			  -0.65492			 -0.18234
	93.75			  10.44598			  -0.61214			 -0.42996
	94.00			  10.33852			  -0.48546			 -0.42955
	94.25			  10.26930			  -0.58572			 -0.45992
	94.50			  10.00533			  -0.43003			 -0.57609
	94.75			  10.02604			  -0.38707			 -0.52721
	95.00			  10.09154			  -0.56508			 -0.28942
	95.25			  10.08872			  -0.60749			 -0.11518
	95.50			  10.10952			  -0.75016			 -0.01404
	95.75			  10.03177			  -0.70533			 -0.04790
	96.00			  10.09899			  -0.84893			 -0.10013
	96.25			  10.05139			  -0.97151			 -0.17545
	96.50			  9.90669			  -0.85785			 -0.30738
	96.75			  9.93112			  -0.71165			 -0.25704
	97.00			  9.89179			  -0.80782			 -0.27031
	97.25			  9.94366			  -0.73044			 -0.23103
	97.50			  9.88316			  -0.70272			 -0.18684
	97.75			  10.10607			  -0.66608			 0.03385
	98.00			  10.02514			  -0.83256			 -0.13694
	98.25			  9.94711			  -0.84874			 -0.13863
	98.50			  10.01533			  -0.79089			 -0.23055
	98.75			  9.85355			  -0.75574			 -0.27787
	99.00			  9.73328			  -0.75778			 -0.29797
	99.25			  9.82257			  -0.68728			 -0.14020
	99.50			  9.78433			  -0.69342			 -0.18735
	99.75			  9.78233			  -0.76671			 -0.18994
	100.00			  9.71402			  -0.76448			 -0.14278
	100.25			  9.77243			  -0.71742			 0.00226
	100.50			  9.85164			  -0.66682			 0.02584
	100.75			  9.72247			  -0.82047			 -0.07460
	101.00			  9.71693			  -0.78810			 -0.27308
	101.25			  9.60893			  -0.88650			 -0.38574
	101.50			  9.66070			  -0.81768			 -0.24807
	101.75			  9.77270			  -0.91998			 -0.29328
	102.00			  9.67051			  -0.84316			 -0.37394
	102.25			  9.72283			  -0.67482			 -0.26080
	102.50			  9.85754			  -0.59019			 -0.11209
	102.75			  9.94284			  -0.54350			 -0.04920
	103.00			  10.00806			  -0.45180			 0.08716
	103.25			  10.02641			  -0.29015			 -0.04295
	103.50			  9.90878			  -0.19827			 0.03021
	103.75			  9.88180			  -0.29313			 0.01464
	104.00			  10.02950			  -0.34521			 0.00797
	104.25			  9.86109			  -0.13093			 0.05187
	104.50			  9.94983			  0.21356			 -0.05469
	104.75			  9.92213			  0.09860			 -0.01880
	105.00			  9.64880			  -0.20701			 -0.12230
	105.25			  9.53172			  -0.16367			 -0.02815
	105.50			  9.65761			  -0.00258			 0.02912
	105.75			  9.72429			  -0.00761			 0.00357
	106.00			  9.81767			  0.14101			 -0.11250
	106.25			  9.86972			  0.20221			 -0.27481
	106.50			  9.76553			  0.16520			 -0.21342
	106.75			  9.95165			  0.05415			 -0.14275
	107.00			  9.85536			  0.22844			 0.02711
	107.25			  9.74027			  0.26118			 0.19197
	107.50			  9.73619			  0.29038			 0.21590
	107.75			  9.80995			  0.36162			 0.18220
	108.00			  9.92167			  0.14678			 -0.01389
	108.25			  10.03113			  0.06456			 -0.00632
	108.50			  9.89506			  0.26285			 0.14593
	108.75			  9.99561			  0.21579			 0.23782
	109.00			  10.01932			  0.35474			 0.12506
	109.25			  10.04031			  0.29038			 0.02073
	109.50			  10.03540			  0.18101			 0.10088
	109.75			  9.88143			  0.10195			 0.17870
	110.00			  9.74736			  0.18008			 -0.06359
	110.25			  9.66779			  0.31010			 -0.14157
	110.50			  9.66543			  0.32684			 -0.01647
	110.75			  9.62264			  0.60864			 -0.08184
	111.00			  9.59194			  0.70778			 -0.12418
	111.25			  9.60856			  0.72471			 -0.20844
	111.50			  9.70694			  0.48718			 -0.18735
	111.75			  9.63954			  0.41928			 -0.21377
	112.00			  9.78515			  0.29336			 -0.38995
	112.25			  9.82475			  0.26843			 -0.19332
	112.50			  9.88761			  0.20500			 -0.17925
	112.75			  9.88734			  -0.06546			 0.07679
	113.00			  9.77116			  -0.19324			 0.21299
	113.25			  9.58186			  -0.25500			 0.13301
	113.50			  9.56305			  -0.18115			 -0.01570
	113.75			  9.64708			  -0.06918			 -0.08328
	114.00			  9.73719			  -0.17688			 -0.09454
	114.25			  9.67360			  -0.38446			 -0.28939
	114.50			  9.54798			  -0.45273			 -0.33214
	114.75			  9.59357			  -0.32940			 -0.46557
	115.00			  9.67197			  -0.37777			 -0.41803
	115.25			  9.73019			  -0.45719			 -0.46860
	115.50			  9.74082			  -0.43264			 -0.45673
	115.75			  9.63790			  -0.42445			 -0.25177
	116.00			  9.56814			  -0.46054			 -0.20506
	116.25			  9.66461			  -0.42687			 -0.24644
	116.50			  9.72420			  -0.45180			 -0.32101
	116.75			  9.71520			  -0.56656			 -0.25882
	117.00			  9.80867			  -0.53680			 -0.21980
	117.25			  9.97518			  -0.50276			 -0.10459
	117.50			  9.91586			  -0.31545			 -0.13793
	117.75			  10.00661			  -0.48286			 -0.13618
	118.00			  9.94774			  -0.61660			 -0.19814
	118.25			  10.01542			  -0.49737			 -0.20624
	118.50			  10.07510			  -0.37423			 -0.08484
	118.75			  10.08345			  -0.50016			 -0.18161
	119.00			  9.94202			  -0.42297			 -0.13691
	119.25			  9.86899			  -0.15437			 -0.22583
	119.50			  9.99380			  -0.26523			 -0.13927
	119.75			  9.87944			  -0.35358			 -0.25777
	120.00			  9.92885			  -0.36437			 -0.20739
	120.25			  9.93866			  -0.23305			 -0.30888
	120.50			  10.00088			  -0.14786			 -0.24714
	120.75			  10.14477			  -0.24235			 -0.29944
	121.00			  10.19037			  -0.17818			 -0.34985
	121.25			  10.24323			  0.03797			 -0.29720
	121.50			  10.15158			  -0.02379			 -0.20535
	121.75			  10.07055			  -0.00351			 -0.21549
	122.00			  10.02868			  -0.03737			 -0.27149
	122.25			  9.97908			  -0.01505			 -0.27053
	122.50			  10.21317			  0.12055			 -0.46056
	122.75			  10.35641			  0.22360			 -0.47118
	123.00			  10.34906			  0.06512			 -0.28827
	123.25			  10.24696			  0.04299			 -0.14438
	123.50			  10.30673			  0.14139			 -0.09196
	123.75			  10.37894			  -0.04109			 -0.02272
	124.00			  10.18946			  -0.10917			 0.14175
	124.25			  10.26485			  0.03648			 0.13987
	124.50			  10.23251			  -0.10210			 -0.04215
	124.75			  10.27366			  -0.09782			 -0.09496
	125.00			  10.39030			  -0.15772			 -0.04416
	125.25			  10.25277			  -0.19566			 -0.17612
	125.50			  10.34824			  -0.24458			 -0.02483
	125.75			  10.19255			  -0.23658			 0.08126
	126.00			  10.02822			  -0.10191			 0.06511
	126.25			  10.11970			  -0.08592			 0.07794
	126.50			  10.13169			  -0.10136			 0.05787
	126.75			  10.14858			  -0.13967			 0.12844
	127.00			  10.10925			  -0.22877			 -0.16135
	127.25			  10.23397			  -0.08517			 -0.09894
	127.50			  10.23560			  0.21802			 -0.07211
	127.75			  10.09344			  0.26043			 0.05487
	128.00			  10.18192			  0.07647			 0.02281
	128.25			  10.21589			  0.02011			 0.13033
	128.50			  10.03922			  0.11758			 0.14146
	128.75			  10.21080			  0.28089			 0.08473
	129.00			  10.32226			  0.11163			 -0.05992
	129.25			  10.43117			  0.05136			 0.15212
	129.50			  10.34097			  -0.03979			 0.18390
	129.75			  10.32944			  -0.00184			 0.26672
	130.00			  10.23088			  -0.05690			 0.30140
	130.25			  10.40574			  0.11925			 0.38512
	130.50			  10.35778			  0.09953			 0.18591
	130.75			  10.23815			  0.26322			 0.08457
	131.00			  10.34915			  0.32200			 0.07207
	131.25			  10.22670			  0.25020			 0.18855
	131.50			  10.03522			  0.24890			 0.36588
	131.75			  10.15449			  0.22453			 0.39256
	132.00			  10.10925			  0.27364			 0.37386
	132.25			  10.19954			  0.07461			 0.35443
	132.50			  10.25250			  0.14455			 0.44683
	132.75			  10.24559			  0.00039			 0.33838
	133.00			  10.37458			  0.12520			 0.41164
	133.25			  10.33961			  0.20928			 0.34639
	133.50			  10.19781			  0.29782			 0.23721
	133.75			  10.15031			  0.20017			 0.20259
	134.00			  10.18001			  0.04448			 0.22687
	134.25			  10.38012			  0.13041			 0.47880
	134.50			  10.46932			  0.18342			 0.31704
	134.75			  10.50993			  0.12688			 0.15445
	135.00			  10.46342			  0.13729			 0.05720
	135.25			  10.39765			  0.18491			 0.12028
	135.50			  10.39011			  0.35846			 0.16373
	135.75			  10.31154			  0.43379			 0.00143
	136.00			  10.20744			  0.31400			 -0.01960
	136.25			  10.40565			  0.45295			 0.11208
	136.50			  10.36849			  0.49852			 0.40969
	136.75			  10.30010			  0.38264			 0.39610
	137.00			  10.41709			  0.46114			 0.40918
	137.25			  10.34569			  0.49332			 0.41240
	137.50			  10.24632			  0.38915			 0.38745
	137.75			  10.38321			  0.27383			 0.34566
	138.00			  10.33007			  0.25708			 0.33117
	138.25			  10.30291			  0.33316			 0.32169
	138.50			  10.33688			  0.28871			 0.17062
	138.75			  10.31036			  0.17710			 0.02297
	139.00			  10.27012			  0.26899			 -0.01752
	139.25			  10.30782			  0.43100			 0.14548
	139.50			  10.17247			  0.49257			 -0.10207
	139.75			  10.32217			  0.48234			 -0.21259
	140.00			  10.26658			  0.45351			 -0.32547
	140.25			  10.36968			  0.53480			 -0.15022
	140.50			  10.40565			  0.37371			 -0.08475
	140.75			  10.36704			  0.23941			 0.09871
	141.00			  10.34833			  0.02290			 0.04351
	141.25			  10.24905			  -0.00742			 0.02367
	141.50			  10.07864			  0.04094			 -0.03938
	141.75			  10.07473			  0.15106			 -0.05153
	142.00			  10.10843			  0.25355			 -0.20924
	142.25			  10.19246			  0.12000			 -0.11394
	142.50			  10.10353			  -0.02881			 -0.15701
	142.75			  10.05684			  0.03648			 -0.17746
	143.00			  10.22788			  0.00690			 -0.13615
	143.25			  10.19727			  0.20277			 0.06202
	143.50			  10.07973			  0.25746			 -0.05179
	143.75			  10.02386			  0.23328			 -0.15066
	144.00			  9.90223			  0.33242			 -0.13312
	144.25			  9.74000			  0.21988			 -0.15647
	144.50			  9.75063			  -0.09857			 -0.03912
	144.75			  9.69722			  -0.09578			 0.06288
	145.00			  9.69549			  -0.21780			 0.16105
	145.25			  9.63273			  -0.16088			 0.17729
	145.50			  9.66670			  -0.22319			 0.09507
	145.75			  9.77016			  0.01546			 0.19168
	146.00			  9.92994			  -0.18897			 -0.06765
	146.25			  9.91041			  -0.19417			 0.14331
	146.50			  9.71230			  -0.32252			 -0.01053
	146.75			  9.70140			  -0.61083			 0.09057
	147.00			  9.70240			  -0.47058			 -0.08353
	147.25			  9.64008			  -0.66087			 -0.27292
	147.50			  9.75245			  -0.46221			 -0.25321
	147.75			  9.69195			  -0.52936			 -0.12603
	148.00			  9.64299			  -0.49439			 -0.12884
	148.25			  9.56978			  -0.41441			 -0.07795
	148.50			  9.51091			  -0.47468			 0.06042
	148.75			  9.56514			  -0.55261			 -0.07967
	149.00			  9.58958			  -0.59800			 -0.06828
	149.25			  9.51973			  -0.68412			 -0.01258
	149.50			  9.37157			  -0.48807			 0.05401
	149.75			  9.51328			  -0.41887			 0.04536
	150.00			  9.36476			  -0.42073			 0.06661
	150.25			  9.42889			  -0.23454			 0.15435
	150.50			  9.45541			  -0.33963			 0.24560
	150.75			  9.52872			  -0.43692			 0.17314
	151.00			  9.47694			  -0.47114			 0.37482
	151.25			  9.53153			  -0.31471			 0.25355
	151.50			  9.78124			  -0.13577			 0.05363
	151.75			  9.59730			  -0.11438			 0.06939
	152.00			  9.69404			  -0.30280			 0.12190
	152.25			  9.77388			  -0.23603			 0.10981
	152.50			  9.65144			  -0.21315			 0.20339
	152.75			  9.57868			  -0.29239			 0.36273
	153.00			  9.57686			  -0.37051			 0.22384
	153.25			  9.49520			  -0.33591			 0.12564
	153.50			  9.28146			  -0.55559			 0.21041
	153.75			  9.60093			  -0.65622			 0.23718
	154.00			  9.57786			  -0.39878			 0.09890
	154.25			  9.58640			  -0.57679			 -0.01478
	154.50			  9.62128			  -0.48286			 0.09041
	154.75			  9.49820			  -0.38242			 0.36005
	155.00			  9.44833			  -0.46798			 0.25849
	155.25			  9.54416			  -0.56433			 0.19331
	155.50			  9.59012			  -0.66162			 0.19857
	155.75			  9.53353			  -0.64580			 0.23210
	156.00			  9.62137			  -0.51857			 0.13728
	156.25			  9.56233			  -0.61065			 0.16785
	156.50			  9.57332			  -0.56935			 0.27326
	156.75			  9.76053			  -0.74141			 0.12902
	157.00			  9.95619			  -0.65306			 0.29266
	157.25			  9.97200			  -0.64097			 0.34795
	157.50			  10.10453			  -0.52118			 0.21618
	157.75			  10.08227			  -0.41608			 0.13849
	158.00			  10.14141			  -0.37386			 0.11897
	158.25			  10.16484			  -0.41664			 0.14791
	158.50			  10.21117			  -0.38316			 0.15630
	158.75			  10.26131			  -0.28309			 0.18240
	159.00			  10.25749			  -0.27899			 0.36805
	159.25			  10.28856			  -0.28476			 0.35082
	159.50			  10.44916			  -0.36474			 0.13585
	159.75			  10.23279			  -0.56359			 0.00462
	160.00			  10.07891			  -0.34447			 -0.18343
	160.25			  10.09671			  -0.31155			 -0.24482
	160.50			  10.05130			  -0.52620			 -0.15293
	160.75			  10.22761			  -0.50183			 -0.15076
	161.00			  10.13932			  -0.59428			 -0.15034
	161.25			  10.12505			  -0.76039			 -0.21179
	161.50			  10.12424			  -0.70105			 -0.22331
	161.75			  10.05647			  -0.68375			 -0.02553
	162.00			  10.00915			  -0.78568			 0.01863
	162.25			  9.86608			  -0.62255			 0.04654
	162.50			  9.93993			  -0.69305			 0.00577
	162.75			  9.88071			  -0.71649			 0.01604
	163.00			  9.96155			  -0.62572			 -0.27209
	163.25			  10.09099			  -0.59056			 -0.15845
	163.50			  9.92313			  -0.61362			 -0.09977
	163.75			  9.87108			  -0.55243			 -0.08203
	164.00			  9.81467			  -0.47263			 -0.00655
	164.25			  9.91195			  -0.56377			 0.15706
	164.50			  9.83974			  -0.24049			 0.15454
	164.75			  9.84010			  -0.18655			 0.28768
	165.00			  9.83692			  -0.36251			 0.15097
	165.25			  9.71230			  -0.54424			 0.10547
	165.50			  9.89987			  -0.30541			 0.06977
	165.75			  9.97072			  -0.42687			 0.05034
	166.00			  10.08472			  -0.31043			 0.09003