--------------TurbSim v2.00.* User Time Series Input File-----------------------
     Time series input from low-res turbsim run
--------------------------------------------------------------------------------
          3 nComp - Number of velocity components in the file
          1 nPoints - Number of time series points contained in this file (-)
          1 RefPtID - Index of the reference point (1-nPoints)
     Pointyi Pointzi ! nPoints listed in order of increasing height
       (m)     (m)
       0.69425   94.00000
--------Time Series-------------------------------------------------------------
Elapsed Time         Point01u             Point01v           Point01w
         (s)            (m/s)                (m/s)              (m/s)
	0.00			  9.07970			  0.00666			 0.27608
	0.25			  9.25032			  0.07466			 0.15578
	0.50			  9.44773			  0.20468			 0.07362
	0.75			  9.26306			  -0.06972			 -0.09999
	1.00			  9.25784			  -0.11259			 0.21362
	1.25			  9.19943			  0.03717			 0.31871
	1.50			  9.38711			  0.03458			 0.20100
	1.75			  9.30752			  -0.13293			 0.10138
	2.00			  9.18618			  0.15323			 0.08280
	2.25			  9.21419			  0.23240			 -0.01255
	2.50			  9.14514			  0.06708			 0.02802
	2.75			  9.02490			  0.13409			 -0.00161
	3.00			  9.17053			  -0.06473			 -0.04912
	3.25			  9.10941			  0.03996			 -0.01502
	3.50			  9.12225			  -0.12635			 -0.10378
	3.75			  9.13711			  -0.20512			 -0.00262
	4.00			  9.18287			  -0.12874			 -0.15327
	4.25			  9.21780			  -0.18159			 -0.22689
	4.50			  9.40577			  -0.03342			 -0.10704
	4.75			  9.40638			  -0.09883			 -0.17515
	5.00			  9.49349			  -0.08906			 -0.21550
	5.25			  9.72693			  0.02540			 -0.25431
	5.50			  9.68689			  0.08862			 -0.15016
	5.75			  9.77079			  0.29103			 -0.17365
	6.00			  9.78434			  0.43261			 -0.07538
	6.25			  9.82348			  0.40449			 0.26828
	6.50			  9.89122			  0.50600			 0.30541
	6.75			  9.85037			  0.39931			 0.32013
	7.00			  9.70274			  0.32114			 0.46797
	7.25			  9.68357			  0.04834			 0.43762
	7.50			  9.83251			  0.12531			 0.39431
	7.75			  9.98747			  0.12152			 0.36974
	8.00			  10.09566			  0.30937			 0.10179
	8.25			  10.05210			  0.08842			 0.06654
	8.50			  10.09495			  -0.15606			 0.02896
	8.75			  9.97934			  -0.39935			 0.10228
	9.00			  9.97974			  -0.61931			 0.05031
	9.25			  9.93749			  -0.59896			 0.07523
	9.50			  9.89825			  -0.49148			 0.11464
	9.75			  9.57619			  -0.29685			 0.18080
	10.00			  9.53062			  -0.23523			 0.21842
	10.25			  9.32298			  -0.09783			 0.13802
	10.50			  9.33592			  0.01902			 0.02555
	10.75			  9.52149			  0.19311			 0.12757
	11.00			  9.48496			  0.10517			 0.03402
	11.25			  9.33833			  -0.05197			 0.34235
	11.50			  9.45596			  -0.15666			 0.11932
	11.75			  9.31685			  -0.08746			 0.21006
	12.00			  9.38480			  -0.03003			 0.19148
	12.25			  9.52019			  -0.15945			 0.01068
	12.50			  9.52019			  -0.16783			 -0.08145
	12.75			  9.61152			  0.09440			 -0.00022
	13.00			  9.70033			  -0.01229			 -0.01855
	13.25			  9.60670			  -0.16404			 -0.10895
	13.50			  9.65096			  -0.05157			 -0.09198
	13.75			  9.88781			  -0.18777			 -0.19219
	14.00			  9.83743			  -0.22985			 -0.01701
	14.25			  9.85961			  -0.26155			 -0.00746
	14.50			  9.81645			  -0.03542			 -0.05650
	14.75			  9.90045			  0.08244			 -0.15522
	15.00			  10.00222			  -0.00211			 -0.13292
	15.25			  10.15176			  -0.10282			 0.13360
	15.50			  10.18829			  -0.14131			 0.04533
	15.75			  10.22964			  -0.28209			 -0.15364
	16.00			  9.91009			  -0.18498			 0.00266
	16.25			  9.82127			  -0.10142			 0.19984
	16.50			  9.63952			  -0.04698			 0.10134
	16.75			  9.63871			  0.02680			 0.14652
	17.00			  9.64142			  -0.11937			 0.18931
	17.25			  9.79237			  -0.08766			 0.01236
	17.50			  9.95826			  -0.06653			 0.22812
	17.75			  10.04317			  -0.11977			 0.21377
	18.00			  10.09837			  -0.11199			 0.13184
	18.25			  10.01597			  -0.15686			 -0.05286
	18.50			  10.12396			  -0.02884			 -0.13967
	18.75			  10.25493			  0.09440			 0.05534
	19.00			  10.05039			  0.21006			 -0.02840
	19.25			  9.71579			  0.05931			 0.16713
	19.50			  9.71539			  -0.02186			 0.23464
	19.75			  9.89694			  0.03298			 0.28282
	20.00			  9.92143			  0.28644			 0.08426
	20.25			  9.78815			  0.34327			 0.11704
	20.50			  9.71740			  0.10397			 -0.01165
	20.75			  9.52601			  0.02181			 -0.16848
	21.00			  9.41410			  0.06549			 -0.04395
	21.25			  9.53153			  -0.11997			 0.21617
	21.50			  9.40588			  -0.11518			 0.01064
	21.75			  9.43488			  0.08104			 0.06759
	22.00			  9.53243			  0.05811			 0.11936
	22.25			  9.49670			  0.04674			 0.09366
	22.50			  9.59616			  0.22622			 0.03331
	22.75			  9.68628			  0.03039			 -0.12682
	23.00			  9.70224			  -0.05875			 -0.18110
	23.25			  9.50443			  -0.10481			 -0.21171
	23.50			  9.51416			  -0.09424			 -0.24629
	23.75			  9.72442			  0.00766			 -0.20044
	24.00			  9.65728			  0.10437			 -0.18983
	24.25			  9.70144			  0.29781			 0.09752
	24.50			  9.90156			  0.38335			 0.13794
	24.75			  10.03705			  0.22442			 0.25375
	25.00			  9.94160			  0.06549			 0.21617
	25.25			  9.86121			  -0.13592			 0.02986
	25.50			  9.93919			  0.03956			 -0.27256
	25.75			  9.75694			  -0.01767			 -0.08512
	26.00			  9.64403			  -0.14530			 -0.10007
	26.25			  9.48175			  -0.05137			 0.13427
	26.50			  9.46368			  0.02600			 0.05129
	26.75			  9.52922			  -0.00511			 -0.01529
	27.00			  9.53895			  0.03258			 -0.05833
	27.25			  9.89775			  0.13070			 -0.10033
	27.50			  10.01878			  0.04335			 -0.29256
	27.75			  10.12255			  -0.06353			 -0.18571
	28.00			  10.34204			  0.08722			 -0.07133
	28.25			  10.47261			  -0.18877			 -0.08677
	28.50			  10.24590			  -0.16005			 -0.09756
	28.75			  10.42223			  -0.26973			 -0.18354
	29.00			  10.43598			  -0.21669			 -0.21640
	29.25			  10.30943			  -0.00929			 -0.24832
	29.50			  10.17896			  -0.05536			 -0.30238
	29.75			  10.20425			  -0.04938			 -0.07171
	30.00			  10.04949			  -0.22287			 -0.10973
	30.25			  10.06986			  0.04834			 0.00768
	30.50			  10.01075			  0.28863			 0.12112
	30.75			  10.05431			  0.18214			 -0.08583
	31.00			  9.96368			  0.35504			 -0.22464
	31.25			  9.85158			  0.26949			 0.00356
	31.50			  9.95515			  0.23918			 -0.11254
	31.75			  10.07880			  0.24496			 -0.47910
	32.00			  9.96499			  0.36002			 -0.05406
	32.25			  10.11824			  0.24995			 0.10535
	32.50			  10.05652			  -0.07610			 0.18376
	32.75			  10.01818			  -0.07271			 0.19864
	33.00			  9.86272			  0.16539			 0.35273
	33.25			  9.94903			  0.25214			 0.29960
	33.50			  10.08151			  0.22023			 0.25202
	33.75			  10.25493			  0.09420			 0.17133
	34.00			  10.28644			  -0.17242			 0.25116
	34.25			  10.21549			  -0.01448			 0.13483
	34.50			  10.27099			  -0.19694			 -0.02139
	34.75			  10.38711			  -0.17381			 0.07444
	35.00			  10.25543			  -0.16524			 0.04200
	35.25			  10.30852			  -0.27232			 0.21737
	35.50			  10.36934			  -0.29665			 0.14701
	35.75			  10.32548			  -0.06493			 -0.00955
	36.00			  10.29166			  -0.18598			 0.17556
	36.25			  10.24038			  -0.18219			 0.32958
	36.50			  10.36583			  -0.17002			 0.28267
	36.75			  10.14644			  -0.41710			 0.15323
	37.00			  10.05802			  -0.44861			 0.00082
	37.25			  9.77280			  -0.46954			 0.16593
	37.50			  9.74359			  -0.51501			 0.27349
	37.75			  9.84124			  -0.36266			 0.12944
	38.00			  9.68448			  -0.21409			 0.24236
	38.25			  9.76115			  -0.31938			 0.20680
	38.50			  9.45254			  -0.10820			 0.21418
	38.75			  9.38721			  0.02441			 -0.09070
	39.00			  9.48225			  -0.16145			 -0.11573
	39.25			  9.51527			  -0.19674			 -0.13083
	39.50			  9.61312			  -0.19395			 -0.18335
	39.75			  9.44130			  -0.09564			 -0.26982
	40.00			  9.35750			  0.03577			 -0.19129
	40.25			  9.41049			  0.24317			 -0.15525
	40.50			  9.45465			  0.11394			 0.04368
	40.75			  9.64674			  0.14465			 0.12614
	41.00			  9.73125			  0.16779			 0.01060
	41.25			  9.80029			  0.11155			 -0.16919
	41.50			  9.93859			  -0.04758			 -0.03417
	41.75			  9.95174			  -0.02046			 0.24195
	42.00			  10.03875			  0.09640			 0.24135
	42.25			  9.82940			  -0.12137			 0.09231
	42.50			  9.99459			  -0.11977			 -0.11273
	42.75			  9.93588			  -0.05297			 -0.14941
	43.00			  9.78695			  -0.21110			 -0.08662
	43.25			  9.89223			  -0.21050			 -0.17552
	43.50			  9.93538			  0.03557			 -0.04102
	43.75			  9.75604			  -0.08308			 0.12397
	44.00			  9.62356			  -0.02006			 -0.10936
	44.25			  9.68699			  -0.17660			 0.01884
	44.50			  9.78835			  -0.19575			 0.18777
	44.75			  9.80431			  -0.09325			 0.31654
	45.00			  9.79658			  -0.01966			 0.23636
	45.25			  9.82117			  -0.22406			 0.13203
	45.50			  9.63359			  -0.35927			 0.23801
	45.75			  9.55150			  -0.36346			 0.25708
	46.00			  9.62225			  -0.43126			 0.22591
	46.25			  9.36784			  -0.22227			 0.14840
	46.50			  9.30451			  -0.35089			 0.19407
	46.75			  9.26276			  -0.82809			 -0.11408
	47.00			  9.24128			  -0.50564			 -0.06620
	47.25			  9.30391			  -0.54911			 -0.09512
	47.50			  9.23737			  -0.46715			 0.24090
	47.75			  9.20656			  -0.73656			 0.37277
	48.00			  9.31053			  -0.73277			 0.38412
	48.25			  9.38380			  -0.52339			 0.34134
	48.50			  9.27892			  -0.59418			 0.37944
	48.75			  9.21459			  -0.66896			 0.25438
	49.00			  9.36192			  -0.70844			 0.11056
	49.25			  9.54628			  -0.35049			 0.20115
	49.50			  9.58823			  -0.35348			 0.16237
	49.75			  9.57729			  -0.31420			 -0.03252
	50.00			  9.69492			  -0.36585			 0.05436
	50.25			  9.56675			  -0.29884			 0.02555
	50.50			  9.64634			  -0.40035			 0.04488
	50.75			  9.64233			  -0.39536			 0.09299
	51.00			  9.57589			  -0.60874			 -0.00393
	51.25			  9.76085			  -0.75192			 0.02297
	51.50			  9.88841			  -0.59418			 0.05991
	51.75			  9.86543			  -0.73536			 0.08995
	52.00			  9.90648			  -0.58162			 -0.07673
	52.25			  9.83522			  -0.43365			 0.00633
	52.50			  9.86663			  -0.53774			 0.04694
	52.75			  10.03353			  -0.50005			 -0.10232
	53.00			  10.03373			  -0.26235			 0.07407
	53.25			  9.97834			  0.14326			 -0.28679
	53.50			  9.85389			  0.19212			 -0.17904
	53.75			  9.84626			  0.29442			 -0.13176
	54.00			  9.64273			  0.38216			 -0.27462
	54.25			  9.78634			  0.30518			 -0.27922
	54.50			  9.82910			  0.26410			 -0.56808
	54.75			  9.86673			  0.12232			 -0.36719
	55.00			  9.82257			  0.11474			 -0.48423
	55.25			  9.65778			  -0.05715			 -0.43238
	55.50			  9.72091			  -0.17920			 -0.19886
	55.75			  9.73677			  -0.17341			 -0.22453
	56.00			  9.75975			  -0.20632			 -0.43324
	56.25			  9.96449			  -0.17481			 -0.32317
	56.50			  10.01015			  0.00885			 -0.24611
	56.75			  10.01487			  0.36042			 -0.39825
	57.00			  10.21890			  0.37318			 -0.17638
	57.25			  10.14835			  0.25194			 -0.30196
	57.50			  10.09787			  0.16061			 -0.40612
	57.75			  10.08392			  0.26351			 -0.47430
	58.00			  10.03163			  0.40011			 -0.55923
	58.25			  10.09506			  0.13628			 -0.45074
	58.50			  9.82378			  0.35484			 -0.29309
	58.75			  9.79297			  0.28644			 -0.43856
	59.00			  9.94451			  0.43620			 -0.35423
	59.25			  9.95435			  0.39113			 -0.16705
	59.50			  10.00503			  0.20508			 -0.14821
	59.75			  9.97522			  0.17018			 -0.36371
	60.00			  10.12045			  0.13628			 -0.29470
	60.25			  10.43347			  0.20807			 -0.12910
	60.50			  10.34245			  0.19890			 -0.27705
	60.75			  10.35258			  0.22602			 -0.23194
	61.00			  10.24249			  0.47648			 -0.33962
	61.25			  9.99570			  0.62604			 -0.30841
	61.50			  10.05792			  0.68667			 -0.28473
	61.75			  10.19491			  0.41227			 -0.15641
	62.00			  10.18408			  0.45116			 -0.16698
	62.25			  10.05662			  0.38794			 -0.04327
	62.50			  9.99720			  0.06130			 0.07583
	62.75			  10.14614			  0.17337			 0.09876
	63.00			  10.07478			  0.07665			 0.02091
	63.25			  9.96358			  0.26331			 0.11771
	63.50			  9.90035			  0.22941			 0.26840
	63.75			  9.67926			  0.39512			 0.33216
	64.00			  9.52430			  0.45215			 0.41619
	64.25			  9.64815			  0.50819			 0.25266
	64.50			  9.78594			  0.53112			 0.01645
	64.75			  9.81153			  0.53690			 0.09771
	65.00			  9.65608			  0.32552			 -0.14484
	65.25			  9.37476			  0.50041			 -0.05590
	65.50			  9.62727			  0.74828			 -0.13802
	65.75			  9.51025			  0.70681			 -0.10692
	66.00			  9.65557			  0.70740			 -0.17110
	66.25			  9.61392			  0.59254			 0.05668
	66.50			  9.60600			  0.28464			 -0.26484
	66.75			  9.51958			  0.14824			 -0.09707
	67.00			  9.50302			  0.22981			 0.00850
	67.25			  9.48345			  0.26410			 0.00869
	67.50			  9.63179			  0.30120			 -0.02488
	67.75			  9.68859			  0.21525			 -0.18916
	68.00			  9.71198			  0.28006			 -0.02312
	68.25			  9.63159			  0.09101			 0.15769
	68.50			  9.72854			  0.17816			 -0.06710
	68.75			  9.85218			  0.21345			 -0.07219
	69.00			  9.78835			  0.14864			 -0.25255
	69.25			  9.90106			  0.15562			 -0.13277
	69.50			  9.93508			  -0.08826			 0.09947
	69.75			  10.08231			  -0.10023			 0.15233
	70.00			  10.13982			  0.01224			 0.19444
	70.25			  10.17575			  -0.14569			 -0.10887
	70.50			  10.09686			  -0.05037			 -0.06496
	70.75			  10.11242			  0.28744			 0.11824
	71.00			  10.10479			  0.17836			 0.20103
	71.25			  9.89684			  0.12312			 0.26566
	71.50			  9.84847			  0.02082			 0.34808
	71.75			  9.90899			  0.22941			 0.32414
	72.00			  9.98737			  0.20169			 0.37547
	72.25			  10.01798			  0.24077			 0.25184
	72.50			  10.15567			  0.21226			 0.33501
	72.75			  10.15487			  0.09719			 0.23884
	73.00			  9.96629			  -0.07271			 0.17799
	73.25			  10.02761			  0.07027			 0.16825
	73.50			  10.07368			  0.01763			 0.19601
	73.75			  9.92916			  -0.07311			 0.19669
	74.00			  9.80180			  -0.08687			 0.17983
	74.25			  9.88159			  -0.08268			 0.03462
	74.50			  9.86041			  -0.07370			 0.08617
	74.75			  9.98265			  -0.15008			 0.33568
	75.00			  9.86272			  -0.28329			 0.23389
	75.25			  10.13530			  -0.43704			 0.28331
	75.50			  10.08673			  -0.29246			 0.20602
	75.75			  10.12958			  -0.50743			 0.10059
	76.00			  10.25403			  -0.52259			 -0.22805
	76.25			  10.23707			  -0.62808			 -0.09018
	76.50			  10.46529			  -0.31739			 0.13008
	76.75			  10.40126			  -0.27531			 -0.04803
	77.00			  10.11262			  -0.50504			 0.12794
	77.25			  10.19170			  -0.28768			 0.16035
	77.50			  10.17976			  -0.09325			 0.29058
	77.75			  9.92936			  -0.29246			 0.38326
	78.00			  9.93759			  -0.27133			 0.43114
	78.25			  10.05601			  -0.28688			 0.31762
	78.50			  10.03966			  -0.45220			 0.04541
	78.75			  9.97653			  -0.68013			 0.13918
	79.00			  9.96308			  -0.66976			 -0.03619
	79.25			  10.07137			  -0.47293			 -0.04237
	79.50			  10.20385			  -0.49567			 -0.02132
	79.75			  10.23737			  -0.81932			 0.15237
	80.00			  10.27109			  -0.73038			 0.18938
	80.25			  10.07077			  -0.78881			 0.00674
	80.50			  10.07318			  -0.79180			 -0.07025
	80.75			  9.96037			  -0.37522			 0.22164
	81.00			  10.04949			  -0.18558			 0.28357
	81.25			  9.91611			  -0.10541			 0.28496
	81.50			  10.11061			  -0.15048			 0.25191
	81.75			  10.05260			  -0.18298			 0.31998
	82.00			  9.90577			  -0.23842			 0.36678
	82.25			  9.94010			  -0.32118			 0.26075
	82.50			  9.84696			  -0.41072			 0.12641
	82.75			  9.52029			  -0.61990			 0.11532
	83.00			  9.39122			  -0.56766			 0.19822
	83.25			  9.40025			  -0.69070			 0.12599
	83.50			  9.40387			  -0.93299			 0.01326
	83.75			  9.49249			  -1.02691			 0.17496
	84.00			  9.50975			  -0.92162			 0.29923
	84.25			  9.82237			  -0.76827			 0.61614
	84.50			  9.86282			  -0.58122			 0.79507
	84.75			  10.02591			  -0.79280			 0.69208
	85.00			  9.87707			  -0.71004			 0.34996
	85.25			  9.86322			  -0.59199			 0.20797
	85.50			  9.82308			  -0.71163			 0.27870
	85.75			  9.76647			  -0.59996			 0.27720
	86.00			  9.91210			  -0.60475			 0.26907
	86.25			  10.07388			  -0.74055			 0.23876
	86.50			  9.96238			  -0.77385			 0.19347
	86.75			  9.95184			  -0.78981			 0.45021
	87.00			  9.95666			  -0.51441			 0.26386
	87.25			  10.02219			  -0.41271			 0.42114
	87.50			  10.15959			  -0.34232			 0.11708
	87.75			  10.10730			  -0.08088			 -0.01855
	88.00			  9.90417			  -0.28668			 -0.07455
	88.25			  10.23646			  -0.54732			 0.08197
	88.50			  10.14644			  -0.46217			 -0.36607
	88.75			  10.00854			  -0.48689			 -0.31995
	89.00			  10.08713			  -0.56606			 -0.39683
	89.25			  10.13851			  -0.37143			 -0.25761
	89.50			  10.04467			  -0.46635			 -0.35265
	89.75			  10.18267			  -0.35229			 -0.34333
	90.00			  10.17324			  -0.04220			 -0.26551
	90.25			  10.14112			  -0.20372			 -0.14697
	90.50			  9.95656			  -0.10781			 -0.25300
	90.75			  10.11583			  -0.28189			 -0.15259
	91.00			  10.00031			  -0.19654			 -0.04177
	91.25			  9.99188			  -0.19475			 -0.03027
	91.50			  9.86503			  -0.11598			 -0.10097
	91.75			  9.79126			  -0.24321			 -0.41477
	92.00			  10.06404			  -0.33693			 -0.43987
	92.25			  10.04869			  -0.47573			 -0.60299
	92.50			  10.14905			  -0.35408			 -0.41398
	92.75			  10.05491			  -0.23064			 -0.11183
	93.00			  9.89072			  -0.39835			 -0.22767
	93.25			  9.85961			  -0.55310			 -0.21081
	93.50			  9.42484			  -0.66796			 -0.06148
	93.75			  9.41471			  -0.31221			 -0.24311
	94.00			  9.48345			  -0.41550			 -0.11266
	94.25			  9.80431			  -0.49327			 0.07347
	94.50			  9.76928			  -0.54133			 -0.12805
	94.75			  9.68970			  -0.42388			 -0.28166
	95.00			  9.79678			  -0.32078			 -0.16361
	95.25			  9.71027			  -0.32397			 -0.05672
	95.50			  9.50272			  -0.36724			 -0.14012
	95.75			  9.71037			  -0.40194			 0.02031
	96.00			  9.60288			  -0.26514			 0.09291
	96.25			  9.39393			  -0.24261			 0.06890
	96.50			  9.53865			  -0.02146			 -0.09962
	96.75			  9.61503			  -0.15168			 -0.13701
	97.00			  9.64172			  -0.08088			 -0.16215
	97.25			  9.84305			  -0.39078			 -0.29571
	97.50			  9.93739			  -0.30582			 -0.29432
	97.75			  9.93428			  -0.06513			 -0.23955
	98.00			  9.90467			  0.17018			 -0.10423
	98.25			  9.82880			  0.03179			 -0.38225
	98.50			  9.74058			  -0.02126			 -0.55163
	98.75			  9.91762			  0.02221			 -0.40466
	99.00			  9.92193			  0.22442			 -0.17638
	99.25			  9.90266			  0.29501			 0.04256
	99.50			  10.00925			  0.19471			 -0.11292
	99.75			  9.97563			  0.22482			 -0.10651
	100.00			  9.79859			  0.14745			 -0.05462
	100.25			  9.65628			  -0.08627			 -0.07163
	100.50			  9.46127			  -0.27930			 -0.10479
	100.75			  9.70405			  -0.27312			 0.04301
	101.00			  9.45124			  -0.15227			 -0.03619
	101.25			  9.59716			  -0.15925			 -0.21123
	101.50			  9.54036			  -0.18996			 -0.19216
	101.75			  9.57207			  -0.35428			 -0.36562
	102.00			  9.68518			  -0.51262			 -0.34288
	102.25			  9.85278			  -0.28289			 -0.25476
	102.50			  9.93608			  0.01244			 -0.20235
	102.75			  10.12617			  -0.12555			 -0.33587
	103.00			  9.86503			  -0.00850			 -0.43575
	103.25			  9.64734			  0.03139			 -0.26409
	103.50			  9.60569			  -0.32836			 -0.08283
	103.75			  9.57127			  -0.27292			 -0.03252
	104.00			  9.73837			  -0.36086			 -0.00656
	104.25			  9.92665			  -0.53595			 -0.10824
	104.50			  9.91581			  -0.63665			 -0.09228
	104.75			  9.76497			  -0.51322			 0.00180
	105.00			  9.95074			  -0.39596			 0.00510
	105.25			  9.95947			  -0.29446			 0.04436
	105.50			  10.06545			  -0.35468			 -0.06706
	105.75			  10.10840			  -0.33873			 -0.11127
	106.00			  10.19632			  -0.34730			 -0.03863
	106.25			  9.98215			  -0.38419			 0.03758
	106.50			  9.98646			  -0.17501			 0.01742
	106.75			  9.94973			  -0.06633			 -0.05545
	107.00			  9.97091			  0.00546			 0.04750
	107.25			  9.87496			  0.05352			 -0.03046
	107.50			  9.62657			  0.10298			 -0.18279
	107.75			  9.29297			  0.15622			 -0.12318
	108.00			  9.42304			  -0.11459			 -0.22243
	108.25			  9.57990			  -0.13552			 -0.18511
	108.50			  9.71439			  0.01803			 -0.23989
	108.75			  9.77551			  0.15403			 -0.33801
	109.00			  9.74479			  -0.19296			 -0.09954
	109.25			  10.00031			  -0.30403			 -0.19763
	109.50			  9.76958			  -0.15746			 0.11547
	109.75			  9.65116			  -0.23583			 0.53346
	110.00			  9.62687			  -0.07929			 0.55062
	110.25			  9.77330			  -0.11798			 0.47970
	110.50			  9.60760			  -0.13094			 0.32092
	110.75			  9.60780			  -0.14011			 0.07010
	111.00			  9.74630			  -0.24919			 -0.16979
	111.25			  9.70545			  -0.23962			 0.05148
	111.50			  9.65256			  -0.06054			 0.28143
	111.75			  9.65748			  0.05073			 0.18294
	112.00			  9.66752			  0.09600			 0.27874
	112.25			  9.78253			  0.12671			 0.26270
	112.50			  9.89132			  0.12691			 0.10621
	112.75			  9.96137			  0.12372			 0.24202
	113.00			  9.97834			  -0.20532			 0.10374
	113.25			  10.02571			  -0.09046			 0.02143
	113.50			  9.84084			  -0.23962			 -0.18204
	113.75			  9.94351			  -0.02505			 -0.11393
	114.00			  9.87265			  -0.17182			 0.06493
	114.25			  9.77651			  -0.06094			 0.02413
	114.50			  9.71710			  -0.16703			 0.01098
	114.75			  9.62627			  -0.33574			 -0.12858
	115.00			  9.75744			  -0.29924			 -0.25453
	115.25			  9.97061			  -0.05297			 -0.20032
	115.50			  9.96950			  -0.05955			 -0.35460
	115.75			  9.84807			  -0.01767			 -0.11022
	116.00			  9.81194			  0.12950			 -0.12176
	116.25			  9.82679			  0.12850			 0.00412
	116.50			  10.05601			  0.15024			 0.07283
	116.75			  9.91149			  0.08323			 0.00554
	117.00			  10.05240			  0.03418			 -0.24648
	117.25			  10.06465			  0.14446			 -0.42395
	117.50			  10.08402			  0.15463			 -0.23295
	117.75			  10.19140			  0.03717			 -0.14476
	118.00			  9.99168			  -0.17620			 -0.15855
	118.25			  9.96288			  -0.29665			 -0.34808
	118.50			  10.08392			  -0.27571			 -0.32838
	118.75			  10.00684			  -0.24899			 -0.34269
	119.00			  10.06946			  -0.30702			 -0.27608
	119.25			  9.94793			  -0.32896			 -0.27821
	119.50			  9.92243			  -0.29565			 -0.27106
	119.75			  9.93899			  -0.08786			 -0.04661
	120.00			  9.98064			  0.06529			 -0.01244
	120.25			  10.04979			  -0.06254			 0.01603
	120.50			  10.03865			  -0.03263			 -0.10782
	120.75			  9.97653			  0.09321			 -0.21864
	121.00			  9.73245			  0.05591			 -0.28627
	121.25			  9.89082			  0.18095			 -0.23561
	121.50			  9.90306			  0.16360			 -0.24719
	121.75			  9.75734			  -0.01607			 0.07774
	122.00			  9.51677			  0.15861			 0.20193
	122.25			  9.45044			  0.00746			 -0.01832
	122.50			  9.37828			  0.00925			 0.02671
	122.75			  9.37025			  0.09939			 0.08400
	123.00			  9.48105			  0.12013			 0.16290
	123.25			  9.66320			  0.18892			 0.00682
	123.50			  9.66782			  -0.02006			 -0.10779
	123.75			  9.79548			  0.00187			 -0.04661
	124.00			  9.83181			  -0.17660			 -0.01510
	124.25			  9.93428			  -0.28289			 0.01648
	124.50			  10.01637			  -0.22367			 0.13914
	124.75			  10.03424			  -0.27013			 0.13221
	125.00			  10.04939			  0.00407			 0.14030
	125.25			  9.96750			  -0.09345			 0.05818
	125.50			  10.14935			  -0.04180			 0.09748
	125.75			  10.25373			  -0.07490			 0.06916
	126.00			  10.24018			  -0.36984			 0.09299
	126.25			  10.24188			  -0.30941			 0.17964
	126.50			  10.38410			  -0.28409			 0.34565
	126.75			  10.37135			  -0.41530			 0.22775
	127.00			  10.42745			  -0.49686			 0.33879
	127.25			  10.56404			  -0.42228			 0.23292
	127.50			  10.33502			  -0.32277			 0.30054
	127.75			  10.36161			  -0.22367			 0.15795
	128.00			  10.42354			  -0.22706			 0.19695
	128.25			  10.39594			  -0.31300			 0.19302
	128.50			  10.41992			  -0.57304			 0.14510
	128.75			  10.42143			  -0.50305			 0.25034
	129.00			  10.30943			  -0.47772			 0.22550
	129.25			  10.39313			  -0.35787			 0.36933
	129.50			  10.51818			  -0.45379			 0.28511
	129.75			  10.43608			  -0.63107			 0.07972
	130.00			  10.36473			  -0.71802			 0.34947
	130.25			  10.22603			  -0.69847			 0.43163
	130.50			  10.14825			  -0.86578			 0.41578
	130.75			  9.99600			  -0.70286			 0.26394
	131.00			  9.89604			  -0.59498			 0.05612
	131.25			  9.81896			  -0.54393			 0.19969
	131.50			  9.95274			  -0.47034			 0.26034
	131.75			  9.84696			  -0.21848			 0.24108
	132.00			  9.82930			  -0.45997			 0.19043
	132.25			  9.73907			  -0.50943			 -0.15870
	132.50			  9.73014			  -0.52179			 -0.07362
	132.75			  9.97111			  -0.86618			 -0.10351
	133.00			  10.05852			  -0.97726			 -0.03297
	133.25			  9.97362			  -0.91105			 -0.02870
	133.50			  9.72653			  -0.90188			 0.22250
	133.75			  9.75323			  -1.04665			 0.11048
	134.00			  10.07508			  -0.99181			 -0.07497
	134.25			  10.06123			  -0.90068			 -0.11696
	134.50			  9.96980			  -1.00398			 -0.02907
	134.75			  9.82759			  -0.88373			 -0.07339
	135.00			  9.68789			  -0.73058			 -0.18470
	135.25			  9.73687			  -0.68431			 0.00659
	135.50			  9.77109			  -0.86598			 0.13004
	135.75			  9.83813			  -0.85761			 -0.00281
	136.00			  9.84204			  -1.02033			 0.20381
	136.25			  9.78243			  -0.90606			 0.27746
	136.50			  9.69883			  -0.99401			 0.06436
	136.75			  9.76697			  -0.81453			 0.06732
	137.00			  9.74981			  -0.87177			 0.04795
	137.25			  9.64152			  -0.71263			 -0.12285
	137.50			  9.81936			  -0.73018			 0.11902
	137.75			  9.71750			  -0.80676			 -0.14922
	138.00			  9.71107			  -0.66876			 -0.13124
	138.25			  9.88279			  -0.86917			 -0.11974
	138.50			  9.74018			  -0.84484			 -0.04567
	138.75			  9.91651			  -0.69329			 -0.12483
	139.00			  9.82769			  -0.88413			 -0.08576
	139.25			  9.72864			  -0.75411			 -0.16593
	139.50			  9.75925			  -0.61472			 -0.05110
	139.75			  9.75563			  -0.62429			 -0.13120
	140.00			  9.92805			  -0.39955			 -0.46936
	140.25			  10.04437			  -0.33494			 -0.13143
	140.50			  10.18558			  -0.36744			 -0.16226
	140.75			  10.24670			  -0.44621			 -0.25071
	141.00			  10.37737			  -0.48470			 -0.21419
	141.25			  10.25694			  -0.31520			 -0.13637
	141.50			  10.14664			  -0.32876			 0.00802
	141.75			  10.21308			  -0.58281			 -0.05620
	142.00			  10.35499			  -0.74653			 -0.03214
	142.25			  10.41029			  -0.55011			 0.06564
	142.50			  10.47392			  -0.31121			 -0.24210
	142.75			  10.39182			  -0.19495			 -0.04822
	143.00			  10.02139			  -0.03641			 0.10187
	143.25			  10.02912			  0.01125			 -0.02169
	143.50			  9.98727			  -0.10940			 -0.16406
	143.75			  9.89584			  -0.20053			 0.07328
	144.00			  9.88259			  -0.23124			 -0.01390
	144.25			  9.87838			  -0.02405			 -0.29646
	144.50			  9.86302			  -0.18179			 -0.38825
	144.75			  9.89975			  -0.16783			 -0.32107
	145.00			  9.95565			  -0.16603			 -0.18953
	145.25			  9.88149			  0.01164			 -0.10805
	145.50			  9.72563			  0.01982			 -0.18552
	145.75			  9.98084			  0.05891			 -0.00285
	146.00			  9.82669			  -0.16165			 0.00393
	146.25			  9.89042			  -0.17521			 -0.19062
	146.50			  9.94461			  -0.32218			 -0.16076
	146.75			  9.95716			  -0.29685			 -0.07264
	147.00			  10.05672			  -0.21649			 -0.09752
	147.25			  10.08151			  -0.27651			 -0.03327
	147.50			  9.87526			  -0.43405			 -0.10044
	147.75			  9.79176			  -0.37163			 -0.03289
	148.00			  9.95866			  -0.46974			 0.13356
	148.25			  9.92625			  -0.36844			 -0.00251
	148.50			  10.04809			  -0.44203			 -0.03076
	148.75			  10.10810			  -0.57504			 0.19886
	149.00			  9.99590			  -0.55011			 0.09771
	149.25			  10.01527			  -0.70904			 0.09505
	149.50			  9.83753			  -0.52558			 0.09891
	149.75			  9.76437			  -0.53037			 -0.04979
	150.00			  9.99861			  -0.41510			 -0.00307
	150.25			  9.77300			  -0.57643			 -0.02139
	150.50			  9.49229			  -0.49746			 0.13461
	150.75			  9.62526			  -0.70665			 0.14034
	151.00			  9.76948			  -0.60714			 0.01956
	151.25			  9.59656			  -0.79838			 0.19216
	151.50			  9.41812			  -0.88652			 0.07478
	151.75			  9.18117			  -0.60395			 -0.15952
	152.00			  9.08141			  -0.58939			 -0.34850
	152.25			  9.10570			  -0.46675			 -0.04915
	152.50			  9.19913			  -0.35987			 -0.13244
	152.75			  9.21348			  -0.23603			 -0.22325
	153.00			  9.13761			  -0.03881			 -0.14461
	153.25			  9.05622			  0.00985			 -0.49528
	153.50			  9.18548			  -0.02744			 -0.66106
	153.75			  9.17514			  -0.04579			 -0.78912
	154.00			  9.30551			  -0.11399			 -0.87169
	154.25			  9.26457			  -0.16065			 -0.37592
	154.50			  9.27862			  -0.19575			 -0.13259
	154.75			  9.38871			  -0.46117			 -0.03177
	155.00			  9.56846			  -0.20033			 0.15323
	155.25			  9.61593			  0.03936			 0.08317
	155.50			  9.54578			  -0.08288			 -0.13633
	155.75			  9.47352			  -0.28269			 -0.34681
	156.00			  9.29468			  -0.32357			 -0.23775
	156.25			  9.38811			  -0.25896			 -0.23539
	156.50			  9.21419			  -0.45180			 -0.18485
	156.75			  9.23024			  -0.44442			 -0.11183
	157.00			  9.15547			  -0.34451			 -0.36041
	157.25			  9.32569			  -0.17142			 -0.19306
	157.50			  9.42063			  -0.16105			 -0.17811
	157.75			  9.61172			  -0.25138			 -0.45977
	158.00			  9.49279			  -0.48510			 -0.13053
	158.25			  9.66119			  -0.25039			 -0.03537
	158.50			  9.78444			  -0.44561			 -0.06444
	158.75			  9.82227			  -0.30223			 -0.17732
	159.00			  9.66782			  -0.46077			 0.09314
	159.25			  9.66832			  -0.39935			 -0.12967
	159.50			  9.41380			  -0.17042			 0.00674
	159.75			  9.50915			  -0.11538			 0.05076
	160.00			  9.59947			  -0.20392			 -0.09553
	160.25			  9.75102			  -0.16244			 -0.18459
	160.50			  9.80019			  -0.15606			 -0.16057
	160.75			  9.73285			  -0.17481			 -0.14555
	161.00			  9.51577			  -0.35827			 -0.30114
	161.25			  9.51176			  -0.12216			 -0.46085
	161.50			  9.47402			  -0.39097			 -0.40653
	161.75			  9.42715			  -0.65440			 -0.39840
	162.00			  9.48667			  -0.53615			 -0.28645
	162.25			  9.50824			  -0.33235			 -0.34130
	162.50			  9.41340			  -0.22865			 -0.05597
	162.75			  9.20937			  -0.34651			 -0.21733
	163.00			  9.28444			  -0.41730			 -0.01308
	163.25			  9.38952			  -0.24361			 0.04586
	163.50			  9.40036			  -0.46237			 0.19778
	163.75			  9.40347			  -0.66956			 0.28271
	164.00			  9.33281			  -0.78681			 0.10539
	164.25			  9.27791			  -0.92122			 0.24794
	164.50			  9.41350			  -0.68013			 0.05680
	164.75			  9.32860			  -0.51561			 -0.05994
	165.00			  9.23817			  -0.66996			 -0.17301
	165.25			  9.25945			  -0.52259			 -0.19706
	165.50			  9.09164			  -0.44502			 -0.31676
	165.75			  9.09556			  -0.59896			 -0.33403
	166.00			  9.17595			  -0.56088			 -0.14772
	166.25			  9.39654			  -0.36226			 -0.13585
	166.50			  9.03675			  -0.39756			 -0.36419