--------------TurbSim v2.00.* User Time Series Input File-----------------------
     Time series input from low-res turbsim run
--------------------------------------------------------------------------------
          3 nComp - Number of velocity components in the file
          1 nPoints - Number of time series points contained in this file (-)
          1 RefPtID - Index of the reference point (1-nPoints)
     Pointyi Pointzi ! nPoints listed in order of increasing height
       (m)     (m)
       -1.55883   94.00000
--------Time Series-------------------------------------------------------------
Elapsed Time         Point01u             Point01v           Point01w
         (s)            (m/s)                (m/s)              (m/s)
	0.00			  9.29611			  -0.41900			 0.13771
	0.25			  9.37314			  -0.39365			 -0.16631
	0.50			  9.63822			  -0.30879			 -0.48247
	0.75			  9.54566			  -0.22331			 -0.26935
	1.00			  9.44948			  -0.29559			 -0.38256
	1.25			  9.30591			  -0.22205			 -0.30848
	1.50			  9.17670			  -0.12630			 -0.28204
	1.75			  9.13398			  -0.13636			 -0.05817
	2.00			  9.13060			  -0.10724			 0.16580
	2.25			  9.08648			  -0.19523			 0.32494
	2.50			  9.29284			  -0.50574			 0.32383
	2.75			  9.40396			  -0.60149			 0.23220
	3.00			  9.48683			  -0.45043			 0.30434
	3.25			  9.49652			  -0.30230			 0.47658
	3.50			  9.55103			  -0.22142			 0.23206
	3.75			  9.58884			  -0.37018			 0.28852
	4.00			  9.46734			  -0.36055			 0.01232
	4.25			  9.41843			  -0.39973			 -0.31869
	4.50			  9.40349			  -0.51035			 -0.43769
	4.75			  9.61802			  -0.55016			 -0.24742
	5.00			  9.62713			  -0.65136			 -0.32099
	5.25			  9.58487			  -0.68153			 -0.29855
	5.50			  9.58161			  -0.39512			 -0.04442
	5.75			  9.26938			  -0.44331			 0.11798
	6.00			  9.31828			  -0.30272			 0.04501
	6.25			  9.18581			  -0.28156			 -0.05214
	6.50			  9.23705			  -0.35531			 -0.09481
	6.75			  9.27090			  -0.54765			 -0.26223
	7.00			  9.16678			  -0.66414			 -0.28761
	7.25			  9.14472			  -0.31298			 -0.03081
	7.50			  9.35645			  -0.13049			 0.30181
	7.75			  9.66926			  -0.32975			 0.28967
	8.00			  9.90516			  -0.17177			 -0.08194
	8.25			  9.85228			  -0.24007			 -0.21845
	8.50			  9.69599			  -0.23546			 -0.15960
	8.75			  9.60962			  -0.25411			 0.33087
	9.00			  9.35820			  -0.52104			 0.27188
	9.25			  9.37781			  -0.66644			 0.03954
	9.50			  9.55394			  -0.44540			 -0.23211
	9.75			  9.53644			  0.03712			 -0.11279
	10.00			  9.54671			  0.28079			 -0.23174
	10.25			  9.56200			  -0.05360			 -0.26305
	10.50			  9.42287			  -0.18224			 -0.15118
	10.75			  9.55721			  0.02015			 -0.33639
	11.00			  9.51636			  -0.12148			 -0.24613
	11.25			  9.51344			  -0.10472			 -0.22802
	11.50			  9.27965			  -0.25180			 -0.00672
	11.75			  9.31105			  -0.13887			 0.08396
	12.00			  9.24183			  0.24161			 0.22364
	12.25			  9.09161			  0.19112			 0.15136
	12.50			  8.94280			  -0.13657			 0.20590
	12.75			  8.90603			  -0.41146			 0.43653
	13.00			  8.79876			  -0.34902			 0.15693
	13.25			  8.74332			  -0.33310			 0.07416
	13.50			  8.94023			  -0.35279			 0.12796
	13.75			  9.18499			  -0.43744			 -0.20631
	14.00			  9.17367			  -0.57949			 -0.21855
	14.25			  9.07656			  -0.70981			 -0.22586
	14.50			  9.09115			  -0.92562			 -0.28011
	14.75			  8.93357			  -0.63795			 -0.20158
	15.00			  9.02252			  -0.81436			 -0.14410
	15.25			  9.05158			  -0.96438			 -0.25225
	15.50			  9.03746			  -0.56357			 -0.04814
	15.75			  9.02041			  -0.66540			 -0.13265
	16.00			  8.88922			  -0.77037			 -0.00791
	16.25			  8.74005			  -0.53696			 0.29937
	16.50			  8.81697			  -0.39973			 0.04515
	16.75			  9.07306			  -0.42948			 -0.08286
	17.00			  9.02975			  -0.16506			 -0.35630
	17.25			  8.94069			  -0.31487			 0.04069
	17.50			  9.23296			  -0.54953			 0.60188
	17.75			  9.21534			  -0.31319			 0.62054
	18.00			  9.03582			  -0.40035			 0.50495
	18.25			  9.44271			  -0.71778			 0.58486
	18.50			  9.54962			  -0.79467			 0.75223
	18.75			  9.63658			  -0.59269			 0.59093
	19.00			  9.54636			  -0.64046			 0.36913
	19.25			  9.81283			  -0.34546			 0.28972
	19.50			  9.67253			  -0.12861			 0.66652
	19.75			  9.64919			  -0.00080			 0.41736
	20.00			  9.73264			  -0.09865			 0.10207
	20.25			  9.84726			  -0.27862			 0.08961
	20.50			  9.60693			  -0.25537			 -0.22530
	20.75			  9.65479			  -0.21179			 -0.26186
	21.00			  9.72482			  -0.38653			 0.05081
	21.25			  9.57764			  -0.63669			 -0.08948
	21.50			  9.46278			  -0.74355			 0.12474
	21.75			  9.57484			  -1.05447			 0.13463
	22.00			  9.63646			  -0.90027			 -0.07660
	22.25			  9.55908			  -0.99937			 0.03039
	22.50			  9.52990			  -0.67168			 -0.10525
	22.75			  9.59316			  -0.54974			 0.02239
	23.00			  9.63040			  -0.47641			 -0.05357
	23.25			  9.77921			  -0.48814			 -0.01550
	23.50			  9.90609			  -0.39847			 -0.14006
	23.75			  9.91204			  -0.34399			 -0.15325
	24.00			  9.60192			  -0.09173			 -0.12098
	24.25			  9.52383			  0.12282			 0.05269
	24.50			  9.63331			  0.01156			 0.00391
	24.75			  9.65712			  -0.12525			 -0.24154
	25.00			  9.95955			  -0.15291			 -0.29689
	25.25			  9.88228			  -0.09257			 -0.28839
	25.50			  9.91531			  0.10333			 -0.17077
	25.75			  10.08455			  0.14335			 -0.15247
	26.00			  10.21633			  -0.08838			 -0.09247
	26.25			  10.20454			  -0.36997			 -0.00046
	26.50			  10.06880			  -0.52125			 0.02593
	26.75			  9.97962			  -0.66519			 0.38609
	27.00			  9.97040			  -0.43534			 0.34016
	27.25			  9.98523			  -0.42466			 0.32692
	27.50			  10.04149			  -0.61637			 0.28553
	27.75			  10.21913			  -0.45064			 0.25367
	28.00			  10.33492			  -0.35950			 0.42724
	28.25			  10.20081			  -0.18350			 0.60749
	28.50			  9.97729			  -0.29643			 0.72772
	28.75			  10.00647			  -0.43220			 0.46412
	29.00			  10.05934			  -0.46866			 0.14231
	29.25			  9.99223			  -0.16569			 0.21546
	29.50			  9.92010			  -0.28638			 0.13536
	29.75			  10.01767			  -0.07686			 -0.01205
	30.00			  9.93375			  -0.28156			 0.25818
	30.25			  9.86080			  -0.13049			 0.35266
	30.50			  10.00110			  0.17939			 0.06009
	30.75			  9.75809			  0.19154			 0.35869
	31.00			  9.42765			  0.34428			 0.34540
	31.25			  9.73042			  0.30489			 0.21003
	31.50			  9.51974			  -0.03956			 0.26696
	31.75			  9.57063			  -0.00101			 0.02515
	32.00			  9.43431			  0.06855			 -0.17615
	32.25			  9.59456			  -0.01630			 -0.23280
	32.50			  9.59515			  0.28666			 -0.27928
	32.75			  9.61709			  0.58460			 -0.39819
	33.00			  9.60437			  0.78490			 -0.22296
	33.25			  9.68630			  0.52070			 0.10400
	33.50			  9.66576			  0.43186			 0.10258
	33.75			  9.71105			  0.19992			 -0.14567
	34.00			  9.68852			  0.05263			 -0.13275
	34.25			  9.99118			  0.12994			 0.15844
	34.50			  9.87014			  -0.01609			 0.09095
	34.75			  9.80664			  -0.01945			 0.04773
	35.00			  9.58896			  -0.31194			 -0.12111
	35.25			  9.60950			  -0.01547			 -0.21505
	35.50			  9.69774			  0.06729			 -0.23588
	35.75			  9.48111			  0.34114			 -0.09684
	36.00			  9.71478			  0.06583			 0.11224
	36.25			  9.48158			  0.06625			 0.74543
	36.50			  9.56223			  0.27409			 0.70648
	36.75			  9.55581			  0.33967			 0.36655
	37.00			  9.75832			  0.10962			 0.23096
	37.25			  9.81365			  0.30426			 0.36862
	37.50			  9.74630			  0.25859			 0.46141
	37.75			  9.45917			  0.34093			 0.25937
	38.00			  9.34548			  0.15948			 0.20534
	38.25			  9.47481			  0.03230			 0.34213
	38.50			  9.32821			  0.05808			 0.45189
	38.75			  9.16993			  0.24727			 0.18052
	39.00			  9.12149			  0.38451			 -0.04741
	39.25			  9.36882			  0.51944			 0.17923
	39.50			  9.30650			  0.57768			 0.10750
	39.75			  9.35739			  0.50917			 0.16815
	40.00			  9.38843			  0.54039			 0.16838
	40.25			  9.34361			  0.41677			 0.18870
	40.50			  9.23133			  0.27619			 0.26135
	40.75			  9.16013			  0.25502			 0.34264
	41.00			  9.39392			  0.23847			 0.50624
	41.25			  9.14519			  0.33883			 0.55672
	41.50			  9.00664			  0.38032			 0.44941
	41.75			  9.00361			  0.66862			 0.33216
	42.00			  9.16772			  0.66191			 0.42053
	42.25			  9.19433			  0.63845			 0.70078
	42.50			  9.30393			  0.61980			 0.63848
	42.75			  9.09278			  0.45365			 0.54413
	43.00			  9.18126			  0.02518			 0.66331
	43.25			  9.28584			  0.01869			 0.75195
	43.50			  9.41563			  0.14021			 0.62436
	43.75			  9.25689			  0.04194			 0.54647
	44.00			  9.25444			  0.15508			 0.18787
	44.25			  9.12184			  0.27262			 -0.07325
	44.50			  9.02999			  0.41300			 -0.17859
	44.75			  9.20600			  0.29965			 -0.06410
	45.00			  9.23156			  0.35308			 0.13532
	45.25			  9.07049			  0.34386			 -0.12875
	45.50			  8.96252			  0.42934			 0.02759
	45.75			  8.75814			  0.28687			 0.21932
	46.00			  8.73480			  0.29609			 0.31087
	46.25			  8.66220			  0.40399			 0.04897
	46.50			  8.58715			  0.54814			 0.12037
	46.75			  8.61831			  0.74761			 0.16166
	47.00			  8.77075			  0.68244			 0.09582
	47.25			  8.91910			  0.41594			 -0.06902
	47.50			  8.86237			  0.30887			 0.03329
	47.75			  8.96404			  0.28268			 0.01899
	48.00			  8.95680			  0.22381			 -0.02925
	48.25			  9.35925			  -0.03705			 -0.13780
	48.50			  9.70475			  -0.17554			 -0.12056
	48.75			  9.51963			  0.01994			 -0.08534
	49.00			  9.35785			  0.05577			 -0.15785
	49.25			  9.41586			  0.22339			 -0.32113
	49.50			  9.24510			  0.32794			 -0.26407
	49.75			  9.43757			  0.06792			 -0.40688
	50.00			  9.36287			  0.05808			 -0.29970
	50.25			  9.22794			  0.18840			 -0.06566
	50.50			  9.31046			  0.15425			 -0.34779
	50.75			  9.44119			  0.26257			 -0.25823
	51.00			  9.53994			  0.18232			 -0.20461
	51.25			  9.40769			  0.15634			 -0.44320
	51.50			  9.59456			  0.22381			 -0.42546
	51.75			  9.84878			  0.14796			 -0.42688
	52.00			  9.97741			  0.28352			 -0.53034
	52.25			  9.69634			  -0.03579			 -0.45870
	52.50			  9.68199			  -0.17826			 -0.42725
	52.75			  9.79264			  0.29965			 -0.62574
	53.00			  9.51041			  0.25251			 -0.66565
	53.25			  9.54589			  -0.10325			 -0.72469
	53.50			  9.87808			  -0.00792			 -0.65384
	53.75			  9.59725			  -0.16988			 -0.69687
	54.00			  9.77198			  -0.10891			 -0.58165
	54.25			  9.64557			  -0.19461			 -0.73771
	54.50			  9.30124			  0.16849			 -0.86521
	54.75			  9.43034			  -0.00939			 -0.76520
	55.00			  9.61079			  0.09265			 -0.69899
	55.25			  9.58137			  0.10522			 -0.70671
	55.50			  9.54916			  0.26340			 -0.48569
	55.75			  9.40349			  0.26047			 -0.45465
	56.00			  9.36404			  -0.09592			 -0.45764
	56.25			  9.46337			  -0.32702			 -0.17036
	56.50			  9.41808			  -0.32472			 -0.18824
	56.75			  9.45111			  -0.18057			 -0.08474
	57.00			  9.49477			  -0.20801			 0.15343
	57.25			  9.44399			  -0.17617			 -0.12052
	57.50			  9.61814			  -0.33750			 -0.11196
	57.75			  9.65841			  0.00381			 0.00262
	58.00			  9.77653			  0.03880			 0.09798
	58.25			  9.79812			  0.15948			 0.05973
	58.50			  9.62339			  -0.06973			 0.20139
	58.75			  9.82637			  0.11276			 0.19859
	59.00			  9.79357			  0.25775			 0.09591
	59.25			  9.73533			  0.11402			 0.04147
	59.50			  9.29494			  -0.14642			 0.17104
	59.75			  9.33323			  -0.01840			 0.23376
	60.00			  9.34490			  0.01303			 0.08653
	60.25			  9.12453			  -0.27108			 0.17900
	60.50			  9.26576			  -0.13699			 0.06970
	60.75			  9.50422			  -0.10619			 0.03522
	61.00			  9.28910			  0.07693			 0.19790
	61.25			  9.41703			  0.05116			 0.15518
	61.50			  9.38552			  -0.10095			 0.09715
	61.75			  9.31595			  -0.22205			 0.18107
	62.00			  9.11006			  -0.25327			 -0.11362
	62.25			  9.22199			  -0.25914			 -0.18296
	62.50			  9.46500			  -0.20592			 -0.16351
	62.75			  9.38797			  -0.02468			 -0.02653
	63.00			  9.34770			  0.03293			 -0.18319
	63.25			  9.32330			  0.08657			 -0.21749
	63.50			  9.55686			  0.11192			 -0.12392
	63.75			  9.65187			  0.21626			 -0.04405
	64.00			  9.75704			  0.41363			 -0.27340
	64.25			  9.73848			  0.32018			 -0.35460
	64.50			  9.46022			  0.15383			 -0.17588
	64.75			  9.62689			  0.21165			 -0.12939
	65.00			  9.78108			  0.33778			 -0.07311
	65.25			  9.72599			  0.22548			 0.12883
	65.50			  9.78622			  -0.10263			 0.20843
	65.75			  9.68934			  -0.27087			 0.13031
	66.00			  9.92383			  -0.51622			 -0.01403
	66.25			  10.15797			  -0.82275			 -0.33855
	66.50			  9.99806			  -0.93128			 -0.54569
	66.75			  10.12552			  -0.84097			 -0.45796
	67.00			  9.84866			  -0.78294			 -0.17942
	67.25			  9.90095			  -0.73412			 -0.44228
	67.50			  9.77898			  -0.70353			 -0.42596
	67.75			  9.72097			  -0.77435			 -0.39207
	68.00			  9.91274			  -0.78084			 -0.53921
	68.25			  9.82695			  -0.65345			 -0.50679
	68.50			  9.64802			  -0.38820			 -0.45750
	68.75			  9.46594			  -0.30104			 -0.29712
	69.00			  9.48379			  -0.11205			 0.02722
	69.25			  9.38412			  0.09348			 -0.26108
	69.50			  9.29191			  0.12198			 -0.30926
	69.75			  9.10469			  0.06436			 -0.15413
	70.00			  9.13188			  -0.02510			 -0.00639
	70.25			  9.19900			  0.36712			 0.01186
	70.50			  9.32085			  0.57873			 0.07384
	70.75			  9.25537			  0.60387			 -0.11302
	71.00			  8.95750			  0.19699			 0.04538
	71.25			  8.83518			  0.11339			 0.01949
	71.50			  8.95388			  0.11695			 0.18810
	71.75			  9.22829			  0.02330			 0.43561
	72.00			  9.29704			  0.09265			 0.19679
	72.25			  8.99147			  0.43249			 0.35735
	72.50			  9.07854			  0.43081			 0.39694
	72.75			  9.25117			  0.50854			 0.44205
	73.00			  9.21569			  0.65604			 0.05973
	73.25			  9.25666			  0.62126			 0.12906
	73.50			  9.54869			  0.42515			 0.11637
	73.75			  9.69541			  0.38157			 -0.14424
	74.00			  9.79649			  0.56490			 -0.01177
	74.25			  9.62012			  0.70612			 -0.16263
	74.50			  9.57927			  0.70319			 -0.09550
	74.75			  9.43757			  0.62462			 -0.22581
	75.00			  9.29984			  0.37780			 0.03200
	75.25			  9.46197			  0.34344			 0.34351
	75.50			  9.51297			  0.52949			 0.32190
	75.75			  9.29331			  0.42830			 -0.22420
	76.00			  9.26413			  0.73587			 -0.00009
	76.25			  9.30615			  0.79915			 -0.24117
	76.50			  9.16970			  0.67134			 -0.42357
	76.75			  9.16386			  0.58187			 -0.28848
	77.00			  9.13340			  0.44317			 -0.31395
	77.25			  9.51111			  0.42453			 -0.46633
	77.50			  9.78925			  0.51127			 -0.65103
	77.75			  9.60285			  0.60157			 -0.39451
	78.00			  9.59211			  0.77107			 -0.57838
	78.25			  9.34385			  0.73482			 -0.55880
	78.50			  9.39509			  0.46915			 -0.43626
	78.75			  9.43781			  0.53222			 -0.35000
	79.00			  9.31899			  0.64012			 -0.33391
	79.25			  9.48776			  0.93450			 -0.38182
	79.50			  9.46979			  1.01265			 -0.09109
	79.75			  9.29331			  0.75347			 -0.27740
	80.00			  9.23962			  0.80606			 -0.40095
	80.25			  9.24475			  1.03884			 -0.40214
	80.50			  9.38015			  1.25339			 -0.08263
	80.75			  9.26786			  0.96132			 -0.09040
	81.00			  9.12675			  0.93848			 -0.10015
	81.25			  9.13900			  1.25946			 -0.12235
	81.50			  9.40956			  0.92737			 -0.20190
	81.75			  9.31362			  0.68223			 0.15458
	82.00			  9.58406			  0.85656			 0.12488
	82.25			  9.70241			  0.71115			 0.09095
	82.50			  9.89745			  0.99463			 0.00004
	82.75			  9.81703			  0.80271			 -0.42918
	83.00			  9.74537			  0.80837			 -0.32366
	83.25			  9.82870			  1.11636			 -0.08484
	83.50			  9.89372			  0.99882			 -0.37460
	83.75			  10.06086			  1.18445			 -0.36968
	84.00			  9.79731			  0.99819			 -0.13753
	84.25			  9.75400			  0.88337			 -0.14121
	84.50			  9.85858			  0.78909			 -0.12847
	84.75			  9.85835			  0.90579			 -0.06185
	85.00			  9.82112			  0.73084			 0.13895
	85.25			  9.95686			  0.85614			 0.03572
	85.50			  9.77501			  0.82932			 0.03591
	85.75			  9.78447			  0.96823			 -0.22222
	86.00			  9.61651			  0.67700			 -0.19477
	86.25			  9.28304			  0.50184			 -0.17739
	86.50			  9.47259			  0.87353			 -0.28512
	86.75			  9.80338			  0.67176			 -0.35115
	87.00			  9.85427			  0.83958			 -0.69582
	87.25			  10.10953			  0.59528			 -0.46518
	87.50			  10.13673			  0.62273			 -0.23993
	87.75			  9.94472			  0.29881			 -0.28080
	88.00			  9.87726			  0.23742			 -0.45484
	88.25			  9.77956			  0.56029			 -0.29772
	88.50			  9.86629			  0.29316			 -0.27892
	88.75			  9.86827			  0.30971			 -0.04368
	89.00			  9.76124			  0.42851			 -0.09192
	89.25			  9.71467			  0.56344			 -0.06608
	89.50			  10.03507			  0.44715			 -0.20130
	89.75			  10.12412			  0.56805			 -0.26075
	90.00			  10.10767			  0.44988			 -0.24521
	90.25			  10.28240			  0.57035			 -0.25878
	90.50			  10.50883			  0.68663			 -0.46996
	90.75			  10.47697			  0.67302			 -0.60027
	91.00			  10.45001			  0.64725			 -0.42849
	91.25			  10.42795			  0.66107			 -0.35511
	91.50			  10.32932			  0.47376			 -0.29175
	91.75			  10.29722			  0.34826			 -0.07031
	92.00			  10.11840			  0.51504			 -0.14318
	92.25			  9.94344			  0.66987			 -0.29593
	92.50			  10.16194			  0.59717			 -0.34448
	92.75			  10.23641			  0.36586			 -0.21225
	93.00			  10.14455			  0.08636			 -0.10911
	93.25			  10.22765			  0.51127			 0.17739
	93.50			  10.02129			  0.47649			 0.04966
	93.75			  10.01919			  0.24392			 -0.14254
	94.00			  10.13299			  0.27577			 -0.20599
	94.25			  10.29162			  0.46664			 -0.14534
	94.50			  10.34251			  0.53494			 -0.42624
	94.75			  10.36795			  0.56805			 -0.12167
	95.00			  10.34087			  0.80690			 -0.03348
	95.25			  10.31309			  0.75221			 -0.04207
	95.50			  10.27878			  0.38325			 -0.16259
	95.75			  10.30551			  0.37927			 0.12865
	96.00			  10.32815			  0.41656			 0.21118
	96.25			  10.14793			  0.32312			 0.18502
	96.50			  10.20910			  0.50519			 0.12727
	96.75			  10.27878			  0.23617			 -0.12907
	97.00			  10.32091			  0.28100			 -0.02147
	97.25			  10.23116			  0.25083			 0.12943
	97.50			  10.48281			  -0.01924			 0.01361
	97.75			  10.41884			  -0.21514			 -0.04097
	98.00			  10.28823			  -0.17680			 0.01140
	98.25			  10.51735			  -0.15019			 0.30641
	98.50			  10.71671			  -0.31592			 0.11357
	98.75			  10.76632			  -0.44938			 -0.21542
	99.00			  10.68193			  -0.38045			 -0.22696
	99.25			  10.56883			  -0.07266			 -0.22645
	99.50			  10.58295			  0.05493			 -0.17891
	99.75			  10.72862			  -0.19419			 -0.18181
	100.00			  10.84569			  0.00884			 -0.28742
	100.25			  10.62999			  0.11590			 -0.16291
	100.50			  10.43297			  0.27032			 -0.20769
	100.75			  10.56894			  0.19175			 -0.28752
	101.00			  10.44149			  0.31578			 -0.28770
	101.25			  10.65298			  0.34072			 -0.31795
	101.50			  10.65193			  0.33171			 -0.51553
	101.75			  10.49226			  0.04131			 -0.42044
	102.00			  10.52051			  -0.10451			 -0.27069
	102.25			  10.60630			  -0.16800			 -0.06736
	102.50			  10.42970			  -0.16402			 -0.05283
	102.75			  10.20816			  -0.27820			 -0.20590
	103.00			  10.39468			  -0.12023			 -0.21349
	103.25			  10.33562			  0.08678			 -0.42072
	103.50			  10.33095			  -0.06994			 -0.46523
	103.75			  10.19626			  0.02853			 -0.39892
	104.00			  10.27761			  0.07630			 -0.19776
	104.25			  10.19649			  0.01701			 -0.08493
	104.50			  10.43460			  0.02874			 -0.14075
	104.75			  10.31263			  -0.25285			 -0.01324
	105.00			  10.21061			  -0.37814			 -0.28922
	105.25			  10.43145			  -0.15794			 -0.42633
	105.50			  10.51047			  -0.16192			 -0.66290
	105.75			  10.58669			  -0.27925			 -0.49631
	106.00			  10.81651			  -0.50197			 -0.50587
	106.25			  10.88642			  -0.35133			 -0.48279
	106.50			  10.65812			  -0.23567			 -0.30365
	106.75			  10.32617			  0.10501			 -0.37442
	107.00			  10.37659			  0.30761			 -0.34085
	107.25			  10.38826			  0.08783			 -0.26931
	107.50			  10.28753			  -0.00227			 -0.29515
	107.75			  10.23291			  0.24560			 -0.18705
	108.00			  10.20279			  0.32605			 -0.10415
	108.25			  10.13288			  0.09097			 -0.08608
	108.50			  10.22870			  0.11213			 -0.20084
	108.75			  10.39176			  0.22003			 -0.09293
	109.00			  10.22859			  0.37340			 -0.07132
	109.25			  10.26174			  0.26236			 0.05108
	109.50			  10.50953			  0.32605			 0.11412
	109.75			  10.70959			  0.22527			 0.29878
	110.00			  10.54315			  0.29211			 0.31528
	110.25			  10.25240			  0.22045			 0.25045
	110.50			  10.44510			  0.03461			 0.59148
	110.75			  10.59486			  0.11946			 0.34191
	111.00			  10.50253			  0.28666			 -0.17224
	111.25			  10.67773			  0.33255			 0.01195
	111.50			  10.36247			  0.42934			 0.09375
	111.75			  10.20816			  0.56658			 0.15012
	112.00			  10.54887			  0.62462			 0.42674
	112.25			  10.57536			  0.70612			 0.51309
	112.50			  10.56439			  0.40965			 0.30682
	112.75			  10.51654			  0.28687			 0.06667
	113.00			  10.75045			  0.27220			 0.10548
	113.25			  10.66372			  0.12952			 -0.17348
	113.50			  10.76177			  0.21941			 -0.16383
	113.75			  10.61575			  -0.03328			 -0.21625
	114.00			  10.69991			  -0.07246			 -0.07150
	114.25			  10.64633			  0.13057			 -0.07389
	114.50			  10.75161			  -0.06114			 -0.20047
	114.75			  10.93253			  0.03209			 -0.15569
	115.00			  11.11263			  0.15466			 0.12985
	115.25			  11.09197			  0.13895			 -0.02607
	115.50			  11.00093			  -0.00080			 0.11389
	115.75			  11.07703			  0.23889			 0.36508
	116.00			  10.99486			  0.20537			 0.35299
	116.25			  11.10901			  0.28561			 0.07393
	116.50			  11.14438			  0.35496			 0.12870
	116.75			  10.98132			  0.42222			 0.27914
	117.00			  10.70119			  0.41154			 0.08299
	117.25			  10.70691			  0.54626			 0.37391
	117.50			  11.00011			  0.57203			 0.38494
	117.75			  10.86647			  0.63509			 0.15615
	118.00			  10.91490			  0.78197			 -0.26618
	118.25			  10.94128			  0.80774			 -0.05334
	118.50			  10.89833			  0.68182			 0.11996
	118.75			  10.91420			  0.63509			 -0.14139
	119.00			  11.18990			  0.59214			 -0.11215
	119.25			  10.92471			  0.68726			 -0.16204
	119.50			  11.11403			  0.51378			 -0.00042
	119.75			  10.92588			  0.60429			 0.05609
	120.00			  10.74087			  0.37256			 -0.02170
	120.25			  10.69769			  0.67679			 0.22728
	120.50			  10.70562			  0.46308			 0.14033
	120.75			  11.01820			  0.52258			 0.12419
	121.00			  10.85853			  0.38451			 0.23900
	121.25			  10.93883			  0.35161			 0.31404
	121.50			  10.91129			  0.34302			 0.03347
	121.75			  11.02579			  0.53536			 -0.04704
	122.00			  10.97186			  0.40462			 -0.12337
	122.25			  10.69909			  0.38597			 -0.08516
	122.50			  10.76667			  0.22464			 -0.15362
	122.75			  10.83775			  0.51525			 -0.27161
	123.00			  10.67131			  0.45700			 -0.44831
	123.25			  10.73434			  0.25335			 -0.26876
	123.50			  10.71625			  0.36314			 -0.14783
	123.75			  10.82900			  0.32898			 -0.09164
	124.00			  10.86763			  0.52551			 -0.15003
	124.25			  10.92634			  0.54751			 -0.20815
	124.50			  10.90195			  0.81339			 -0.04451
	124.75			  10.88934			  0.85802			 0.24043
	125.00			  10.87685			  0.95021			 0.02244
	125.25			  10.80227			  0.79014			 0.15421
	125.50			  10.67388			  0.86179			 0.32048
	125.75			  10.44149			  0.65730			 0.33367
	126.00			  10.54700			  0.35748			 0.12805
	126.25			  10.50568			  0.23344			 0.34517
	126.50			  10.56334			  0.08615			 0.38177
	126.75			  10.44370			  0.44108			 0.40733
	127.00			  10.58972			  0.28457			 0.20948
	127.25			  10.64890			  0.24203			 -0.00180
	127.50			  10.79153			  0.42138			 0.31036
	127.75			  11.08403			  0.51420			 0.37625
	128.00			  11.03279			  0.55527			 -0.01720
	128.25			  11.06221			  0.82492			 -0.10576
	128.50			  11.12558			  0.83937			 0.02524
	128.75			  11.19387			  0.54186			 0.04451
	129.00			  11.14344			  0.35224			 -0.37382
	129.25			  11.01097			  0.24601			 -0.24944
	129.50			  11.33872			  0.23910			 -0.04663
	129.75			  11.56364			  0.02476			 -0.32724
	130.00			  11.38120			  -0.06952			 -0.16148
	130.25			  11.39171			  -0.10745			 -0.26453
	130.50			  11.17834			  -0.20257			 -0.19693
	130.75			  10.90533			  -0.15103			 -0.15040
	131.00			  11.07341			  -0.08566			 -0.09445
	131.25			  10.91490			  -0.32597			 -0.00313
	131.50			  10.74438			  -0.36830			 0.24397
	131.75			  10.91012			  -0.68740			 0.38706
	132.00			  11.11275			  -0.67629			 0.41327
	132.25			  11.18301			  -0.80976			 0.44292
	132.50			  11.05660			  -0.91514			 0.18387
	132.75			  11.01937			  -0.85774			 0.36080
	133.00			  10.96474			  -0.41774			 0.39138
	133.25			  11.25421			  -0.52523			 0.31013
	133.50			  11.22772			  -0.58410			 0.02777
	133.75			  11.07586			  -0.84055			 -0.14461
	134.00			  10.86787			  -0.66267			 -0.19942
	134.25			  10.94362			  -0.51496			 0.03485
	134.50			  10.84826			  -0.97109			 0.07301
	134.75			  10.66407			  -0.81143			 0.00970
	135.00			  10.86985			  -0.88036			 -0.05628
	135.25			  10.52401			  -0.79551			 -0.28453
	135.50			  10.39165			  -0.62203			 0.27767
	135.75			  10.34251			  -0.46677			 0.10138
	136.00			  10.27271			  -0.53843			 0.30926
	136.25			  9.98628			  -0.83280			 0.08005
	136.50			  10.22672			  -0.70541			 -0.01541
	136.75			  10.28975			  -0.47473			 0.10143
	137.00			  10.34239			  -0.35070			 0.13716
	137.25			  10.42771			  -0.01840			 -0.09826
	137.50			  10.37997			  -0.14223			 0.11550
	137.75			  10.25392			  -0.26731			 0.00758
	138.00			  10.14245			  -0.43723			 -0.11518
	138.25			  10.48024			  -0.11352			 0.00478
	138.50			  10.57455			  -0.04731			 -0.10539
	138.75			  10.64119			  -0.44184			 0.04446
	139.00			  10.65532			  -0.38296			 -0.12999
	139.25			  10.49004			  -0.33980			 0.32006
	139.50			  10.56334			  -0.42550			 0.22038
	139.75			  10.44324			  -0.16590			 0.07688
	140.00			  10.72337			  -0.27527			 0.07186
	140.25			  10.62089			  -0.11226			 0.29202
	140.50			  10.52074			  -0.06240			 0.30121
	140.75			  10.44674			  -0.34567			 0.03480
	141.00			  10.37227			  -0.47306			 -0.01858
	141.25			  10.69010			  -0.38296			 0.10451
	141.50			  10.67703			  -0.35405			 0.01729
	141.75			  10.47697			  -0.24531			 0.27468
	142.00			  10.53988			  -0.57048			 0.20249
	142.25			  10.55202			  -0.53843			 0.30963
	142.50			  10.36889			  -0.45902			 0.34103
	142.75			  10.53335			  -0.50260			 0.13775
	143.00			  10.86203			  -0.35133			 0.55884
	143.25			  11.07061			  -0.43995			 0.20806
	143.50			  11.11403			  -0.38925			 -0.02069
	143.75			  11.13387			  -0.05255			 0.36333
	144.00			  11.33872			  -0.13280			 0.36595
	144.25			  11.25234			  -0.12295			 0.23597
	144.50			  11.31654			  -0.00583			 0.48375
	144.75			  11.33055			  -0.02510			 0.42867
	145.00			  11.34455			  -0.28072			 0.32756
	145.25			  11.49571			  -0.34651			 0.14433
	145.50			  11.50668			  -0.20152			 0.09577
	145.75			  11.32961			  -0.26710			 0.05991
	146.00			  11.22772			  -0.10556			 0.21215
	146.25			  11.13002			  0.14440			 0.15785
	146.50			  10.95155			  0.39917			 0.13500
	146.75			  11.01750			  0.51630			 0.09628
	147.00			  10.90743			  0.16116			 0.13063
	147.25			  10.85993			  0.02749			 0.04469
	147.50			  10.75862			  0.22904			 -0.04474
	147.75			  10.71146			  0.10962			 -0.33658
	148.00			  10.58178			  -0.03202			 -0.30563
	148.25			  10.69944			  -0.18895			 -0.20471
	148.50			  10.78885			  0.09348			 -0.43047
	148.75			  10.64470			  0.03042			 -0.30568
	149.00			  10.69582			  -0.04836			 -0.18337
	149.25			  10.61085			  -0.14202			 -0.32301
	149.50			  10.53661			  -0.07015			 -0.48436
	149.75			  10.50300			  -0.07413			 -0.62616
	150.00			  10.62660			  -0.05569			 -0.85261
	150.25			  10.82141			  0.15466			 -0.61439
	150.50			  10.75336			  -0.00688			 -0.39538
	150.75			  10.60186			  0.18295			 -0.22107
	151.00			  10.76574			  0.16598			 -0.08093
	151.25			  11.27674			  0.07086			 -0.17063
	151.50			  11.13516			  0.30531			 0.00335
	151.75			  10.94023			  0.26529			 0.00685
	152.00			  10.78254			  0.15131			 -0.45782
	152.25			  10.70726			  0.03209			 -0.71366
	152.50			  10.66746			  0.09286			 -0.65563
	152.75			  10.77122			  0.23072			 -0.69145
	153.00			  10.94035			  0.23596			 -0.52040
	153.25			  10.96556			  0.23994			 -0.44513
	153.50			  10.75150			  0.53159			 -0.31028
	153.75			  10.84114			  0.36251			 -0.36554
	154.00			  11.04225			  0.36314			 -0.29446
	154.25			  10.80997			  0.34742			 -0.36449
	154.50			  10.41627			  0.07148			 -0.19905
	154.75			  10.68356			  0.40965			 -0.17937
	155.00			  10.56965			  0.32018			 -0.05003
	155.25			  10.68275			  0.35434			 -0.30117
	155.50			  10.82106			  0.41279			 -0.24724
	155.75			  10.87545			  0.25754			 -0.49838
	156.00			  11.01353			  0.44171			 -0.49797
	156.25			  11.05287			  0.37445			 -0.59144
	156.50			  10.92903			  0.51441			 -0.48380
	156.75			  10.78476			  0.52866			 -0.60358
	157.00			  10.70562			  0.35434			 -0.61880
	157.25			  10.62485			  0.31893			 -0.46229
	157.50			  10.59030			  0.35517			 -0.43847
	157.75			  10.61727			  0.24685			 -0.17873
	158.00			  10.45176			  0.19112			 -0.31782
	158.25			  10.43262			  0.20558			 -0.48647
	158.50			  10.56101			  0.35978			 -0.27593
	158.75			  10.43577			  0.22925			 -0.05371
	159.00			  10.53206			  0.33946			 -0.10617
	159.25			  10.34449			  0.08049			 -0.12631
	159.50			  10.69874			  -0.22017			 -0.25942
	159.75			  10.42806			  -0.24678			 -0.39594
	160.00			  10.44114			  -0.16045			 -0.19132
	160.25			  10.48000			  -0.11394			 -0.06833
	160.50			  10.50977			  -0.20760			 0.01618
	160.75			  10.62439			  0.00507			 -0.14870
	161.00			  10.61190			  0.00591			 -0.28030
	161.25			  10.51444			  0.02078			 -0.00561
	161.50			  10.49903			  0.12638			 -0.20084
	161.75			  10.35290			  -0.01589			 -0.30227
	162.00			  10.26127			  -0.14160			 -0.13206
	162.25			  10.15680			  -0.14034			 0.01650
	162.50			  10.32663			  0.20809			 0.21914
	162.75			  10.38138			  -0.02510			 0.18093
	163.00			  10.55050			  -0.04815			 0.27289
	163.25			  10.66979			  0.16388			 0.48293
	163.50			  10.72091			  0.28813			 0.12939
	163.75			  10.66524			  0.10983			 0.01425
	164.00			  10.53545			  0.25502			 -0.06975
	164.25			  10.39713			  0.26760			 0.11660
	164.50			  10.54338			  0.06562			 0.50973
	164.75			  10.75628			  0.07274			 0.41612
	165.00			  10.61272			  0.21941			 0.17808
	165.25			  10.58739			  0.15781			 0.30425
	165.50			  10.43495			  0.16535			 0.22622
	165.75			  10.58295			  0.25691			 0.24084
	166.00			  10.68858			  0.17918			 0.29933
	166.25			  10.59614			  0.13811			 0.36154
	166.50			  10.61423			  0.22318			 0.30103