--------------TurbSim v2.00.* User Time Series Input File-----------------------
     Time series input from low-res turbsim run
--------------------------------------------------------------------------------
          3 nComp - Number of velocity components in the file
          1 nPoints - Number of time series points contained in this file (-)
          1 RefPtID - Index of the reference point (1-nPoints)
     Pointyi Pointzi ! nPoints listed in order of increasing height
       (m)     (m)
       -4.62352   94.00000
--------Time Series-------------------------------------------------------------
Elapsed Time         Point01u             Point01v           Point01w
         (s)            (m/s)                (m/s)              (m/s)
	0.00			  10.16684			  0.09562			 -0.05618
	0.25			  9.86015			  -0.04749			 0.04073
	0.50			  9.63791			  0.04224			 -0.04356
	0.75			  9.78130			  0.00566			 0.05999
	1.00			  10.21432			  0.01157			 0.01913
	1.25			  10.27339			  0.23965			 -0.01945
	1.50			  10.18758			  -0.07089			 0.14255
	1.75			  10.36643			  -0.21310			 0.08942
	2.00			  10.32032			  -0.02455			 -0.05212
	2.25			  10.34583			  -0.08407			 -0.18468
	2.50			  9.92414			  -0.01387			 -0.27460
	2.75			  9.87448			  -0.00933			 -0.43229
	3.00			  9.82454			  0.02770			 -0.29787
	3.25			  9.76984			  0.12811			 0.13896
	3.50			  9.65305			  -0.17584			 0.19004
	3.75			  9.82400			  -0.25831			 0.13423
	4.00			  9.78771			  -0.31942			 0.61670
	4.25			  9.89808			  -0.39529			 0.73443
	4.50			  9.93300			  0.24260			 0.58051
	4.75			  9.72850			  0.23533			 0.50836
	5.00			  9.39712			  0.18876			 0.45655
	5.25			  9.41199			  0.23465			 0.01189
	5.50			  9.57338			  0.34301			 0.16653
	5.75			  9.74774			  0.20057			 0.26201
	6.00			  10.06507			  -0.05567			 0.54623
	6.25			  10.01936			  -0.28557			 0.71134
	6.50			  10.37176			  -0.46435			 0.53175
	6.75			  10.11664			  -0.53432			 0.49747
	7.00			  9.82359			  -0.76830			 0.27158
	7.25			  10.04460			  -0.63677			 0.49400
	7.50			  10.20027			  -0.70628			 0.36963
	7.75			  10.20941			  -0.72900			 0.38225
	8.00			  10.10313			  -0.51296			 0.29372
	8.25			  10.19385			  0.00884			 0.49299
	8.50			  10.21923			  -0.07953			 0.55741
	8.75			  10.25484			  -0.34304			 0.43627
	9.00			  10.10095			  -0.37416			 0.36419
	9.25			  9.95988			  -0.45822			 0.71582
	9.50			  9.91254			  -0.52182			 0.57698
	9.75			  10.08867			  -0.62041			 0.50585
	10.00			  9.83068			  -0.84985			 0.30472
	10.25			  9.64269			  -0.58952			 0.17635
	10.50			  9.52140			  -0.56930			 0.08757
	10.75			  9.61076			  -0.53227			 -0.02125
	11.00			  9.69589			  -0.45731			 0.11066
	11.25			  9.74146			  -0.37712			 0.18239
	11.50			  9.58402			  -0.04295			 0.29258
	11.75			  9.40121			  -0.40301			 0.31615
	12.00			  9.53750			  -0.25990			 0.29085
	12.25			  9.73914			  0.04451			 0.39739
	12.50			  10.02919			  0.11493			 0.11634
	12.75			  10.02632			  0.05496			 0.07237
	13.00			  9.84433			  -0.08202			 -0.09154
	13.25			  9.89726			  -0.11564			 -0.00270
	13.50			  9.72509			  -0.03500			 0.26183
	13.75			  9.81049			  -0.26512			 0.40475
	14.00			  9.93028			  -0.37734			 0.08655
	14.25			  9.97025			  0.01498			 -0.15477
	14.50			  9.74064			  0.36277			 0.17180
	14.75			  9.73205			  0.20421			 0.37633
	15.00			  9.74214			  0.27236			 0.37346
	15.25			  9.76479			  0.27940			 0.19322
	15.50			  9.91049			  0.31711			 -0.08107
	15.75			  9.77379			  0.88730			 -0.39227
	16.00			  9.70544			  0.37277			 -0.40268
	16.25			  9.52113			  0.78553			 -0.40633
	16.50			  9.45264			  1.42183			 -0.36098
	16.75			  9.61363			  1.40752			 -0.55098
	17.00			  9.69644			  1.49407			 -0.48906
	17.25			  10.02277			  1.38185			 -0.70340
	17.50			  10.05265			  1.29167			 -0.31163
	17.75			  9.85497			  1.14219			 -0.47488
	18.00			  10.03164			  1.19694			 -0.47716
	18.25			  10.04556			  0.79939			 -0.54134
	18.50			  10.05797			  1.00566			 -0.37695
	18.75			  10.25975			  0.95909			 -0.44700
	19.00			  9.88334			  0.87526			 -0.31498
	19.25			  9.91936			  1.04541			 0.14625
	19.50			  10.09344			  0.98862			 -0.33005
	19.75			  10.34570			  0.67808			 -0.33310
	20.00			  10.26193			  0.86368			 -0.45628
	20.25			  10.23874			  0.75714			 -0.62420
	20.50			  10.23042			  0.84142			 -0.48224
	20.75			  10.25811			  0.58585			 -0.49145
	21.00			  10.25415			  0.77713			 -0.26969
	21.25			  10.26480			  0.84369			 -0.17374
	21.50			  10.25061			  0.61856			 -0.18905
	21.75			  10.32496			  0.07858			 -0.12295
	22.00			  10.23151			  0.15173			 -0.01156
	22.25			  10.43287			  -0.02114			 0.30149
	22.50			  10.07434			  -0.07612			 -0.02340
	22.75			  9.99972			  -0.10815			 -0.33454
	23.00			  10.03601			  -0.20697			 0.09200
	23.25			  9.72086			  -0.05522			 -0.07048
	23.50			  9.85333			  -0.18107			 0.07112
	23.75			  9.86656			  -0.18493			 0.32794
	24.00			  9.91159			  -0.18811			 0.66336
	24.25			  9.56301			  -0.03795			 0.49352
	24.50			  9.57775			  -0.14109			 0.18819
	24.75			  9.50612			  -0.25104			 0.01291
	25.00			  9.89958			  -0.18720			 0.20458
	25.25			  9.62986			  0.12856			 0.17832
	25.50			  9.18020			  0.19785			 -0.19150
	25.75			  9.54228			  0.21602			 -0.11050
	26.00			  9.56874			  0.27713			 0.13154
	26.25			  9.49098			  0.44160			 0.08512
	26.50			  9.25400			  0.66650			 -0.20389
	26.75			  9.25141			  0.69580			 -0.12079
	27.00			  9.34732			  0.82256			 -0.11637
	27.25			  9.27556			  0.69626			 -0.09112
	27.50			  9.20121			  0.63469			 0.03558
	27.75			  9.22399			  0.44637			 -0.00438
	28.00			  9.41199			  0.50066			 0.09265
	28.25			  9.83150			  0.29530			 0.06531
	28.50			  9.92032			  0.24964			 -0.13910
	28.75			  9.45414			  0.33347			 0.10839
	29.00			  9.61308			  -0.02682			 -0.25168
	29.25			  9.61717			  -0.20083			 -0.44575
	29.50			  9.57611			  -0.08589			 -0.51837
	29.75			  9.56397			  -0.35894			 -0.24104
	30.00			  9.61049			  -0.55340			 -0.37851
	30.25			  9.61376			  -0.50774			 -0.42403
	30.50			  9.90558			  -0.49865			 -0.25043
	30.75			  9.75497			  -0.25740			 -0.23936
	31.00			  9.97571			  -0.28398			 -0.07479
	31.25			  9.60817			  -0.40006			 -0.02334
	31.50			  9.67652			  -0.56521			 -0.17505
	31.75			  9.68580			  -0.81919			 0.20853
	32.00			  9.68471			  -0.75331			 0.43825
	32.25			  9.62632			  -0.56385			 0.24580
	32.50			  9.65960			  -0.74399			 0.09499
	32.75			  9.63396			  -0.71264			 0.03941
	33.00			  9.62932			  -0.87825			 0.01494
	33.25			  9.76779			  -1.07770			 -0.18109
	33.50			  9.79371			  -0.73354			 -0.23948
	33.75			  9.66247			  -0.46094			 -0.04207
	34.00			  9.80449			  -0.66903			 0.04174
	34.25			  9.37570			  -0.64381			 -0.32915
	34.50			  9.38061			  -0.69697			 -0.59465
	34.75			  9.64842			  -1.32395			 -0.58406
	35.00			  9.59780			  -1.07952			 -0.40668
	35.25			  9.79303			  -1.05453			 -0.13024
	35.50			  9.86056			  -1.43368			 -0.10410
	35.75			  10.00913			  -1.52545			 -0.21262
	36.00			  10.32987			  -1.78988			 -0.59195
	36.25			  10.14256			  -1.87348			 -0.31288
	36.50			  9.95088			  -1.65153			 -0.35201
	36.75			  9.77802			  -1.55203			 -0.44042
	37.00			  10.06561			  -1.38983			 -0.35398
	37.25			  10.26561			  -0.91891			 -0.31647
	37.50			  10.41323			  -1.13177			 -0.14891
	37.75			  10.43328			  -0.92255			 -0.19366
	38.00			  10.19672			  -0.69197			 -0.34010
	38.25			  9.91691			  -0.59611			 -0.27167
	38.50			  10.29263			  -0.16903			 -0.31091
	38.75			  10.11841			  -0.63950			 -0.33340
	39.00			  10.25184			  -0.63859			 -0.06839
	39.25			  10.14924			  -0.76467			 0.24556
	39.50			  10.20013			  -0.67312			 -0.38826
	39.75			  10.16439			  -0.64586			 -0.17110
	40.00			  9.93764			  -0.57521			 0.29473
	40.25			  9.93532			  -0.48843			 0.15385
	40.50			  10.09222			  -0.45390			 0.30293
	40.75			  9.83055			  -0.67130			 0.04306
	41.00			  10.00449			  -0.56657			 -0.01030
	41.25			  10.17598			  -0.29556			 0.07566
	41.50			  10.38049			  -0.51024			 0.27415
	41.75			  10.64516			  -0.44163			 0.01638
	42.00			  10.36016			  -0.29488			 -0.14365
	42.25			  10.11827			  -0.43527			 0.05437
	42.50			  10.19385			  -0.74763			 0.17862
	42.75			  10.22578			  -0.88279			 0.39553
	43.00			  10.14256			  -0.55681			 0.12035
	43.25			  10.31009			  -0.89597			 0.12544
	43.50			  10.16152			  -0.87416			 0.48862
	43.75			  10.13996			  -0.56249			 0.31926
	44.00			  10.29999			  -0.02160			 0.32554
	44.25			  9.86070			  -0.33668			 0.39320
	44.50			  9.80926			  -0.24127			 0.93077
	44.75			  10.29072			  0.02952			 0.70691
	45.00			  10.25934			  -0.58838			 0.49550
	45.25			  10.47749			  -0.72968			 0.10863
	45.50			  10.38431			  -0.87416			 0.08153
	45.75			  10.48022			  -0.87439			 0.53570
	46.00			  10.17230			  -0.76739			 0.64864
	46.25			  10.25634			  -0.47503			 0.70625
	46.50			  10.04215			  -0.93345			 0.44728
	46.75			  10.10900			  -0.56498			 0.53444
	47.00			  10.00135			  -0.27989			 0.71002
	47.25			  10.21377			  -0.39075			 0.71870
	47.50			  9.94378			  -0.56589			 0.52858
	47.75			  10.13001			  -0.12519			 0.20925
	48.00			  10.11063			  -0.12996			 0.23042
	48.25			  10.30900			  0.00703			 0.63590
	48.50			  10.56494			  -0.16403			 0.73222
	48.75			  10.81023			  -0.36735			 0.74520
	49.00			  10.67258			  -0.50728			 0.31699
	49.25			  10.54625			  -0.71492			 0.05359
	49.50			  10.81596			  -0.64177			 0.07160
	49.75			  10.81787			  -0.48025			 0.18071
	50.00			  10.90792			  -0.51523			 0.10498
	50.25			  10.66930			  -0.58952			 0.02745
	50.50			  10.93056			  0.00294			 -0.55600
	50.75			  10.99468			  -0.00251			 -0.72542
	51.00			  10.82388			  -0.08907			 -0.69060
	51.25			  10.80573			  -0.18947			 -0.86839
	51.50			  10.84543			  -0.40233			 -0.81635
	51.75			  10.93998			  -0.48434			 -0.80079
	52.00			  10.69236			  -0.65699			 -0.57221
	52.25			  10.27612			  -0.96730			 -0.53201
	52.50			  10.50068			  -1.06135			 -0.32251
	52.75			  10.84570			  -0.65017			 0.08398
	53.00			  10.65498			  -0.58929			 0.24448
	53.25			  10.72401			  -0.39234			 0.25525
	53.50			  10.59140			  0.05064			 0.02583
	53.75			  10.43929			  0.06336			 0.21637
	54.00			  10.48949			  -0.12587			 0.04563
	54.25			  10.11936			  -0.13654			 0.32165
	54.50			  9.59125			  0.02293			 0.29958
	54.75			  9.90449			  -0.13632			 0.18640
	55.00			  10.09617			  -0.47071			 -0.13928
	55.25			  10.00681			  -0.29306			 -0.38652
	55.50			  9.51294			  -0.03137			 -0.39406
	55.75			  9.46397			  0.05201			 -0.20185
	56.00			  9.42549			  -0.11496			 -0.38652
	56.25			  9.53095			  -0.40438			 -0.38999
	56.50			  9.73846			  -0.32850			 -0.54727
	56.75			  9.82495			  -0.12405			 -0.58621
	57.00			  10.01104			  -0.67675			 -0.11738
	57.25			  10.18717			  -0.97412			 -0.28572
	57.50			  10.19003			  -0.62269			 -0.22776
	57.75			  9.92004			  -0.65449			 -0.28231
	58.00			  10.04378			  -0.60383			 -0.27460
	58.25			  10.34624			  -0.10565			 0.02200
	58.50			  10.18239			  -0.01637			 -0.05080
	58.75			  10.49086			  -0.03091			 -0.21609
	59.00			  10.48185			  -0.08816			 -0.13228
	59.25			  10.42469			  -0.14450			 -0.08095
	59.50			  10.59604			  -0.31010			 -0.28142
	59.75			  10.51855			  -0.30056			 -0.08053
	60.00			  10.38758			  -0.23536			 -0.42852
	60.25			  10.21173			  -0.03023			 -0.57879
	60.50			  10.42373			  -0.14222			 -0.09932
	60.75			  10.42960			  0.01975			 -0.09573
	61.00			  10.17898			  -0.18879			 0.00208
	61.25			  10.18662			  0.02066			 0.23611
	61.50			  10.35825			  -0.27693			 0.16133
	61.75			  10.22278			  -0.52864			 -0.14299
	62.00			  10.36862			  -0.46276			 -0.49091
	62.25			  10.43724			  -0.61814			 -0.30379
	62.50			  10.49304			  -0.42573			 -0.07383
	62.75			  10.47571			  -0.37371			 -0.13036
	63.00			  10.50095			  -0.27966			 0.19286
	63.25			  10.59563			  -0.46117			 -0.07975
	63.50			  10.68567			  -0.11792			 -0.25970
	63.75			  10.47135			  -0.03068			 -0.23075
	64.00			  10.17093			  -0.48230			 -0.36732
	64.25			  10.19222			  -0.25444			 0.05138
	64.50			  10.09317			  -0.48184			 0.07160
	64.75			  9.92291			  -0.41732			 0.13471
	65.00			  9.69917			  -0.41528			 0.46050
	65.25			  9.74160			  -0.65631			 -0.23128
	65.50			  9.83587			  -0.90687			 -0.30391
	65.75			  9.82386			  -1.06748			 -0.04901
	66.00			  9.88539			  -1.00501			 0.07656
	66.25			  9.87120			  -1.09111			 0.06382
	66.50			  9.47338			  -0.67062			 -0.51993
	66.75			  9.47815			  -0.78193			 -0.50061
	67.00			  9.41840			  -0.52591			 -0.53524
	67.25			  9.37788			  -0.61360			 -0.71046
	67.50			  9.53627			  -0.74899			 -0.48631
	67.75			  9.47911			  -0.92437			 -0.41207
	68.00			  9.60094			  -0.97480			 -0.49115
	68.25			  9.50571			  -0.89347			 -0.41117
	68.50			  9.77625			  -0.88666			 -0.44832
	68.75			  9.93846			  -0.79670			 -0.35566
	69.00			  9.75005			  -0.86053			 -0.06833
	69.25			  9.56410			  -0.93845			 0.53977
	69.50			  9.46342			  -1.06089			 0.48814
	69.75			  9.10857			  -1.03591			 0.51135
	70.00			  9.03872			  -0.91846			 0.27954
	70.25			  8.88456			  -0.84463			 0.32596
	70.50			  8.87937			  -0.94958			 0.47474
	70.75			  9.16942			  -0.84599			 0.26847
	71.00			  9.08852			  -0.34895			 0.27146
	71.25			  9.14186			  -0.65358			 0.52655
	71.50			  9.58621			  -0.96276			 0.37567
	71.75			  9.39016			  -1.32032			 0.52349
	72.00			  9.54951			  -0.87484			 0.43765
	72.25			  9.51172			  -1.24240			 0.31717
	72.50			  9.78061			  -1.59201			 0.50070
	72.75			  9.79371			  -1.54772			 0.59911
	73.00			  9.33395			  -1.35281			 0.94704
	73.25			  9.24691			  -1.40801			 0.61783
	73.50			  9.32495			  -1.21650			 0.08518
	73.75			  9.56902			  -1.14336			 0.26028
	74.00			  9.24732			  -1.01887			 0.18891
	74.25			  9.23736			  -1.10542			 0.47737
	74.50			  9.22535			  -1.09451			 0.77720
	74.75			  8.99684			  -1.19697			 0.77918
	75.00			  8.72808			  -1.04795			 0.74466
	75.25			  8.86218			  -0.81850			 0.59403
	75.50			  8.89220			  -0.68629			 0.01118
	75.75			  9.05427			  -0.69720			 0.29467
	76.00			  9.10680			  -0.56408			 0.31364
	76.25			  8.91389			  -0.64245			 0.30975
	76.50			  8.79206			  -0.44186			 0.55287
	76.75			  8.69615			  -0.46458			 0.37573
	77.00			  8.38523			  -1.05998			 0.18981
	77.25			  8.50788			  -0.94231			 0.13997
	77.50			  8.54745			  -0.58111			 0.00884
	77.75			  8.61962			  -0.37053			 -0.04757
	78.00			  8.73858			  -0.26262			 -0.35266
	78.25			  8.95195			  -0.21742			 -0.64274
	78.50			  8.82535			  -0.22787			 -0.58759
	78.75			  9.08825			  -0.17357			 -0.45191
	79.00			  9.02017			  -0.30738			 -0.34393
	79.25			  8.72166			  -0.83259			 -0.25306
	79.50			  8.74363			  -0.73195			 -0.47004
	79.75			  9.16942			  -0.57248			 -0.06294
	80.00			  9.40107			  -0.49093			 0.04336
	80.25			  9.42154			  -0.77057			 -0.13844
	80.50			  9.46574			  -0.62337			 -0.22542
	80.75			  9.54746			  -0.51478			 -0.47303
	81.00			  9.61226			  -0.17017			 -0.58561
	81.25			  9.47993			  -0.44254			 -0.70478
	81.50			  9.85278			  -0.55135			 -0.30905
	81.75			  9.84705			  -0.52568			 -0.02424
	82.00			  9.50762			  -0.54681			 -0.08927
	82.25			  9.66752			  -0.43913			 -0.09902
	82.50			  9.78348			  -0.09588			 -0.23176
	82.75			  9.45210			  -0.55703			 -0.05134
	83.00			  9.55769			  -0.50206			 0.10767
	83.25			  9.32931			  -0.06976			 0.08936
	83.50			  9.38047			  -0.10542			 0.20668
	83.75			  9.59507			  0.08585			 -0.08867
	84.00			  9.64037			  -0.21651			 -0.10715
	84.25			  9.85306			  -0.25172			 -0.09860
	84.50			  9.45865			  -0.53136			 -0.12002
	84.75			  9.42795			  -0.56657			 0.15038
	85.00			  9.61827			  -0.82964			 0.06549
	85.25			  9.51335			  -1.04317			 -0.06558
	85.50			  9.30094			  -0.71628			 0.02769
	85.75			  9.64473			  -0.88779			 0.21972
	86.00			  9.87530			  -0.98797			 0.27338
	86.25			  9.60380			  -1.12223			 0.17814
	86.50			  9.31035			  -0.82237			 -0.11326
	86.75			  9.37215			  -0.83963			 0.02099
	87.00			  9.38893			  -0.94367			 -0.10883
	87.25			  9.52249			  -1.04976			 -0.01437
	87.50			  9.34950			  -1.23241			 -0.22524
	87.75			  9.24418			  -1.09838			 -0.11002
	88.00			  9.33695			  -0.95844			 -0.29476
	88.25			  9.19848			  -0.69288			 -0.32592
	88.50			  9.18183			  -0.69197			 -0.24475
	88.75			  9.43191			  -0.16471			 -0.18450
	89.00			  9.39603			  -0.22446			 -0.26939
	89.25			  9.23081			  -0.42528			 0.18586
	89.50			  9.46247			  -0.35826			 0.18149
	89.75			  9.42249			  -0.34509			 0.07465
	90.00			  9.38102			  -0.58816			 0.43268
	90.25			  9.39889			  -0.39688			 -0.02885
	90.50			  9.20284			  0.06654			 -0.24319
	90.75			  9.40094			  0.26373			 -0.03238
	91.00			  9.52509			  0.08222			 0.23647
	91.25			  9.44978			  0.06791			 0.09331
	91.50			  9.62113			  -0.32600			 0.03026
	91.75			  9.60640			  -0.35508			 0.10181
	92.00			  9.66724			  -0.21560			 0.28391
	92.25			  9.26069			  -0.14336			 0.31232
	92.50			  9.50871			  -0.23059			 0.73180
	92.75			  9.87707			  -0.08657			 0.58996
	93.00			  9.99262			  -0.20197			 0.16899
	93.25			  9.93901			  -0.27421			 0.13166
	93.50			  10.10968			  -0.25922			 0.27451
	93.75			  9.91554			  -0.29897			 -0.06259
	94.00			  10.32537			  -0.46866			 -0.50952
	94.25			  10.21964			  -0.56771			 -0.25797
	94.50			  10.34965			  -0.73809			 -0.16925
	94.75			  10.30695			  -0.57816			 -0.26407
	95.00			  10.42837			  -0.30079			 -0.64556
	95.25			  10.39604			  -0.37507			 -0.76065
	95.50			  10.13928			  -0.58498			 -0.80426
	95.75			  9.89562			  -0.59702			 -0.59082
	96.00			  9.79944			  -0.86394			 -0.25707
	96.25			  9.68061			  -0.36780			 -0.30971
	96.50			  10.04160			  -0.47548			 -0.48074
	96.75			  9.92182			  -0.28784			 -0.42038
	97.00			  9.68225			  -0.18584			 -0.76041
	97.25			  9.51417			  -0.16608			 -0.58573
	97.50			  9.39889			  -0.30897			 -0.51622
	97.75			  9.36874			  -0.38984			 -0.33280
	98.00			  9.58484			  -0.49297			 -0.52848
	98.25			  9.52809			  -0.60678			 -0.67870
	98.50			  9.67693			  -0.43300			 -0.46884
	98.75			  9.84828			  -0.29897			 -0.84907
	99.00			  9.56192			  -0.05613			 -0.62498
	99.25			  9.67529			  -0.24263			 -0.41386
	99.50			  9.66861			  -0.62087			 -0.25318
	99.75			  9.53832			  -0.82736			 -0.59590
	100.00			  9.28033			  -0.75717			 -0.26580
	100.25			  9.21553			  -0.57248			 -0.22417
	100.50			  9.46519			  -0.50956			 -0.27938
	100.75			  9.34377			  -0.40551			 -0.23493
	101.00			  9.28525			  -0.44140			 -0.24983
	101.25			  9.66533			  -0.02478			 -0.46824
	101.50			  9.58852			  -0.03704			 -0.54595
	101.75			  9.38429			  -0.20697			 -0.20640
	102.00			  9.29125			  -0.22900			 -0.07132
	102.25			  9.38279			  -0.20742			 -0.45717
	102.50			  9.07938			  -0.53568			 -0.53560
	102.75			  9.22822			  -0.56589			 -0.37324
	103.00			  9.22031			  -0.67993			 -0.46202
	103.25			  9.39452			  -0.98116			 -0.58107
	103.50			  9.42263			  -1.37848			 -0.94921
	103.75			  9.81117			  -1.33168			 -0.59913
	104.00			  9.89276			  -1.27420			 -0.28931
	104.25			  10.00504			  -1.14881			 -0.48457
	104.50			  9.57597			  -0.80124			 -0.13407
	104.75			  9.47379			  -1.15858			 -0.04344
	105.00			  9.68471			  -0.85826			 -0.29518
	105.25			  9.69576			  -1.04567			 -0.16410
	105.50			  9.50489			  -1.10428			 0.17808
	105.75			  9.40244			  -1.33759			 0.26422
	106.00			  9.63737			  -1.66834			 -0.16482
	106.25			  9.68580			  -1.78261			 -0.27567
	106.50			  9.70613			  -1.48683			 -0.24145
	106.75			  9.81295			  -1.57634			 -0.16805
	107.00			  10.11582			  -1.53091			 -0.05487
	107.25			  10.02373			  -1.44935			 -0.19408
	107.50			  10.04447			  -1.31237			 -0.12761
	107.75			  9.99603			  -1.38438			 -0.02741
	108.00			  10.25893			  -1.61791			 0.01746
	108.25			  10.40354			  -1.41301			 -0.05607
	108.50			  10.43833			  -1.39619			 -0.03238
	108.75			  10.58840			  -1.58679			 0.33188
	109.00			  10.44911			  -1.49342			 0.29067
	109.25			  10.38131			  -1.33009			 -0.16883
	109.50			  10.19099			  -1.46980			 0.19196
	109.75			  10.07748			  -0.97184			 0.25992
	110.00			  9.99808			  -0.67085			 0.46008
	110.25			  10.08198			  -0.83850			 0.31202
	110.50			  10.34884			  -0.56158			 -0.06731
	110.75			  10.46412			  -0.58384			 -0.10225
	111.00			  10.24651			  -0.26603			 0.27948
	111.25			  10.20709			  0.08563			 0.41803
	111.50			  10.34174			  0.10698			 0.23736
	111.75			  10.23096			  -0.11587			 0.24000
	112.00			  10.11827			  -0.24536			 0.25112
	112.25			  10.21595			  -0.08952			 0.50184
	112.50			  10.08376			  -0.03636			 0.04557
	112.75			  10.13942			  -0.38098			 0.37531
	113.00			  10.22223			  -0.56249			 0.44525
	113.25			  10.00408			  -0.34872			 0.34319
	113.50			  10.06247			  0.00475			 0.36407
	113.75			  10.36302			  0.23510			 0.23844
	114.00			  10.16998			  0.45432			 0.17987
	114.25			  10.33410			  0.25419			 0.06567
	114.50			  10.48758			  0.05269			 0.51967
	114.75			  10.14488			  -0.33691			 0.34576
	115.00			  10.13342			  -0.04818			 0.31759
	115.25			  10.13942			  -0.16494			 0.40810
	115.50			  10.23710			  -0.01296			 0.33852
	115.75			  10.23983			  0.03838			 0.42724
	116.00			  10.47489			  -0.15495			 0.46409
	116.25			  10.56903			  0.18853			 0.49747
	116.50			  10.27066			  0.08381			 -0.08101
	116.75			  10.21527			  0.17649			 -0.13940
	117.00			  10.12946			  -0.12655			 0.37633
	117.25			  10.20845			  -0.42051			 0.23401
	117.50			  10.19563			  -0.26081			 0.37669
	117.75			  10.25552			  -0.04568			 0.50884
	118.00			  10.60941			  0.18399			 0.51117
	118.25			  10.76030			  0.43547			 0.38674
	118.50			  10.34624			  0.39503			 0.36102
	118.75			  10.44993			  0.47931			 0.61006
	119.00			  10.56657			  0.68035			 0.36873
	119.25			  10.44079			  1.02747			 0.29252
	119.50			  10.22960			  0.59562			 0.04228
	119.75			  9.65456			  0.33120			 0.24412
	120.00			  9.51213			  0.57018			 0.64876
	120.25			  9.05564			  0.79394			 0.58822
	120.50			  9.09084			  0.79371			 0.44052
	120.75			  9.14595			  0.71352			 0.28732
	121.00			  9.10871			  1.15309			 0.26171
	121.25			  9.39002			  0.97045			 0.35438
	121.50			  9.90845			  0.81915			 0.20859
	121.75			  10.17680			  0.86595			 0.33015
	122.00			  10.51814			  0.87481			 0.58679
	122.25			  10.51937			  1.38321			 0.16725
	122.50			  10.51828			  1.50157			 0.34110
	122.75			  10.49836			  1.34959			 0.70236
	123.00			  10.20204			  1.47181			 0.50435
	123.25			  10.45811			  1.47385			 0.26333
	123.50			  10.68936			  1.59380			 0.28426
	123.75			  10.65048			  1.38912			 0.41372
	124.00			  10.80341			  0.93069			 0.21391
	124.25			  10.71760			  0.90207			 -0.02274
	124.50			  10.38294			  1.02588			 -0.09022
	124.75			  10.09222			  0.74055			 0.18580
	125.00			  9.93287			  0.90661			 0.11006
	125.25			  9.84978			  0.98408			 0.03642
	125.50			  10.01527			  0.98362			 -0.27968
	125.75			  10.06998			  0.84869			 -0.36242
	126.00			  10.35238			  1.12697			 -0.28118
	126.25			  10.44775			  1.71806			 -0.11158
	126.50			  10.40641			  1.69035			 -0.15058
	126.75			  10.52619			  1.69239			 -0.10703
	127.00			  10.60109			  1.43842			 -0.05642
	127.25			  10.32537			  1.19875			 0.04438
	127.50			  10.06234			  1.24169			 0.05676
	127.75			  10.01404			  1.09244			 -0.33209
	128.00			  10.15647			  0.96545			 -0.21334
	128.25			  10.29754			  0.68376			 -0.07180
	128.50			  10.53015			  0.60607			 0.16767
	128.75			  10.56207			  0.57699			 -0.12061
	129.00			  10.46985			  0.50998			 -0.12564
	129.25			  10.53724			  0.29053			 -0.45538
	129.50			  10.61446			  0.64015			 0.00041
	129.75			  10.82128			  0.78394			 0.14045
	130.00			  10.74011			  0.63606			 0.06382
	130.25			  10.51268			  0.68149			 0.00818
	130.50			  10.58226			  0.51725			 -0.06612
	130.75			  10.86044			  0.55723			 0.03762
	131.00			  10.89823			  0.73101			 0.52284
	131.25			  10.73356			  0.39276			 0.92676
	131.50			  10.44393			  0.37640			 0.41246
	131.75			  10.37967			  0.18422			 0.19555
	132.00			  10.15838			  0.31779			 0.42455
	132.25			  10.15756			  0.35777			 0.26686
	132.50			  10.29154			  -0.01842			 0.29749
	132.75			  10.23887			  0.34596			 0.16839
	133.00			  10.41214			  0.48749			 0.19393
	133.25			  10.59263			  0.62493			 0.25764
	133.50			  10.53779			  0.40344			 -0.10608
	133.75			  10.42755			  0.43933			 0.21373
	134.00			  10.54475			  0.59562			 -0.13611
	134.25			  10.68813			  0.56404			 -0.27017
	134.50			  10.72456			  0.35891			 -0.05367
	134.75			  10.50341			  -0.18311			 0.00525
	135.00			  10.50668			  -0.07362			 0.14602
	135.25			  10.08062			  -0.06135			 0.10743
	135.50			  9.83614			  0.08722			 0.29396
	135.75			  9.86002			  0.02338			 0.47994
	136.00			  9.85988			  0.26713			 0.51644
	136.25			  9.68689			  -0.12042			 0.46367
	136.50			  9.77966			  -0.01955			 0.29892
	136.75			  10.01841			  0.16673			 0.31370
	137.00			  9.69835			  0.48681			 0.25352
	137.25			  9.43791			  0.31439			 0.40253
	137.50			  9.36547			  -0.25967			 0.49992
	137.75			  9.26342			  -0.28625			 0.13704
	138.00			  8.82699			  -0.20038			 0.12615
	138.25			  9.17952			  -0.21265			 0.39236
	138.50			  9.24173			  -0.46685			 0.20123
	138.75			  9.41895			  -0.23218			 0.09576
	139.00			  9.66206			  -0.03841			 0.20374
	139.25			  9.78307			  0.03883			 0.33828
	139.50			  10.02414			  0.41820			 0.42174
	139.75			  10.06370			  0.18195			 0.32548
	140.00			  10.15647			  -0.14450			 0.30155
	140.25			  10.05811			  -0.36712			 0.25860
	140.50			  9.94828			  -0.04886			 0.13453
	140.75			  9.92359			  0.21966			 0.03014
	141.00			  9.86752			  0.33619			 -0.12175
	141.25			  10.31473			  0.32711			 0.19525
	141.50			  10.33615			  -0.02273			 0.22684
	141.75			  9.99958			  0.25305			 0.30466
	142.00			  10.09112			  0.30780			 0.64206
	142.25			  10.59741			  0.06972			 0.87322
	142.50			  10.83493			  -0.12700			 0.48724
	142.75			  10.88472			  0.18626			 0.12053
	143.00			  10.77449			  0.41866			 0.12585
	143.25			  10.37639			  0.45841			 0.01321
	143.50			  10.25429			  0.33369			 0.26249
	143.75			  10.44706			  -0.13314			 0.24855
	144.00			  10.62496			  -0.28602			 0.47743
	144.25			  10.56739			  0.09062			 0.44686
	144.50			  10.48076			  0.12629			 0.45889
	144.75			  10.34856			  0.18535			 0.45470
	145.00			  10.52073			  0.19194			 0.40020
	145.25			  10.61869			  0.02202			 0.86191
	145.50			  10.50668			  0.13447			 0.74089
	145.75			  10.45893			  0.37322			 0.71421
	146.00			  10.47080			  0.34324			 0.75046
	146.25			  10.65853			  0.40503			 0.67867
	146.50			  10.65703			  0.39026			 0.32058
	146.75			  10.74407			  0.05223			 0.36485
	147.00			  10.59686			  -0.16585			 0.62071
	147.25			  10.80914			  -0.34122			 0.60473
	147.50			  10.91174			  -0.50115			 0.70619
	147.75			  11.24830			  -0.22741			 0.84540
	148.00			  11.03725			  -0.37984			 0.60431
	148.25			  11.15744			  -0.46162			 0.35815
	148.50			  11.25048			  -0.48979			 0.34415
	148.75			  11.11419			  -0.59815			 0.28103
	149.00			  11.13957			  -0.57521			 0.35300
	149.25			  11.21802			  -0.62609			 0.51153
	149.50			  11.43384			  -0.30170			 0.45458
	149.75			  11.38173			  -0.41528			 0.30078
	150.00			  11.51952			  -0.55158			 0.52212
	150.25			  11.41406			  -0.25104			 0.87483
	150.50			  11.24735			  -0.17335			 0.54533
	150.75			  10.92401			  -0.01887			 0.46319
	151.00			  10.48240			  0.00475			 0.05150
	151.25			  10.06111			  -0.12428			 -0.00486
	151.50			  10.01200			  0.01611			 -0.03447
	151.75			  9.81909			  0.14946			 -0.29458
	152.00			  9.89044			  -0.07067			 -0.33687
	152.25			  10.14624			  0.10221			 -0.39089
	152.50			  10.32169			  -0.24536			 -0.43863
	152.75			  10.16398			  -0.34940			 -0.56390
	153.00			  9.89494			  0.04133			 -0.83519
	153.25			  10.06984			  -0.24377			 -0.56097
	153.50			  10.12755			  -0.08997			 -0.19061
	153.75			  10.04528			  -0.14041			 -0.18486
	154.00			  10.40013			  -0.44618			 -0.06797
	154.25			  10.20422			  -0.52909			 -0.09573
	154.50			  10.17776			  -0.40960			 0.05323
	154.75			  10.39590			  -0.26171			 -0.02496
	155.00			  10.13642			  -0.23150			 0.39003
	155.25			  10.21186			  0.10289			 0.14189
	155.50			  10.32496			  0.19308			 0.19453
	155.75			  10.25579			  0.21897			 0.17934
	156.00			  10.18389			  0.27440			 -0.02167
	156.25			  9.82741			  0.05814			 0.31980
	156.50			  10.12155			  0.02793			 0.49197
	156.75			  10.31718			  0.45364			 0.44596
	157.00			  10.60627			  0.30893			 0.63165
	157.25			  10.57121			  0.22738			 0.62824
	157.50			  10.42523			  0.32733			 0.55891
	157.75			  10.21295			  0.31961			 0.46260
	158.00			  10.59209			  0.30689			 0.54348
	158.25			  11.23711			  -0.11201			 0.59420
	158.50			  11.13875			  0.04883			 0.33284
	158.75			  11.26672			  -0.16290			 0.35898
	159.00			  11.19973			  -0.24808			 -0.01018
	159.25			  10.94530			  -0.25308			 -0.03806
	159.50			  10.96644			  -0.08566			 -0.11086
	159.75			  11.32879			  0.32461			 -0.10177
	160.00			  10.97858			  0.23124			 -0.02532
	160.25			  10.83124			  0.04883			 -0.20514
	160.50			  10.65757			  -0.05226			 0.14117
	160.75			  10.82374			  0.08767			 0.40020
	161.00			  10.85212			  0.28917			 0.51249
	161.25			  10.86808			  0.28576			 0.45278
	161.50			  10.92674			  0.33824			 0.56411
	161.75			  11.02374			  0.28349			 0.64075
	162.00			  10.71460			  0.01361			 0.34516
	162.25			  10.90682			  -0.22968			 0.41456
	162.50			  11.16399			  -0.17584			 0.12424
	162.75			  11.03452			  0.01679			 -0.17930
	163.00			  10.76794			  0.30280			 -0.00061
	163.25			  10.83384			  0.51566			 0.18394
	163.50			  10.84066			  0.56745			 0.37035
	163.75			  10.68690			  0.39389			 0.07889
	164.00			  10.51200			  0.61311			 0.09714
	164.25			  10.43410			  0.46613			 0.24125
	164.50			  10.43860			  0.36527			 0.18424
	164.75			  10.43110			  0.55041			 0.27134
	165.00			  10.52073			  0.50884			 0.15475
	165.25			  10.81787			  0.53315			 0.26099
	165.50			  10.74775			  0.45637			 0.12496
	165.75			  10.96794			  0.31234			 -0.24277
	166.00			  11.29864			  0.44523			 -0.39657