--------------TurbSim v2.00.* User Time Series Input File-----------------------
     Time series input from low-res turbsim run
--------------------------------------------------------------------------------
          3 nComp - Number of velocity components in the file
          1 nPoints - Number of time series points contained in this file (-)
          1 RefPtID - Index of the reference point (1-nPoints)
     Pointyi Pointzi ! nPoints listed in order of increasing height
       (m)     (m)
       2.37044   94.00000
--------Time Series-------------------------------------------------------------
Elapsed Time         Point01u             Point01v           Point01w
         (s)            (m/s)                (m/s)              (m/s)
	0.00			  9.98464			  -0.29523			 -0.02926
	0.25			  9.87325			  -0.33181			 -0.09512
	0.50			  9.95096			  -0.29663			 -0.06905
	0.75			  9.95239			  -0.19862			 -0.10041
	1.00			  9.80206			  0.04028			 0.05072
	1.25			  9.77291			  0.09733			 0.09855
	1.50			  9.90607			  -0.05686			 0.10487
	1.75			  9.99434			  -0.11707			 0.15997
	2.00			  9.94007			  -0.20335			 0.15802
	2.25			  10.07665			  -0.22243			 0.20519
	2.50			  10.05384			  -0.19932			 0.34248
	2.75			  10.09754			  -0.11812			 0.15140
	3.00			  10.10342			  -0.14209			 0.21745
	3.25			  10.21354			  0.02715			 0.31002
	3.50			  10.19217			  0.12079			 0.27893
	3.75			  10.11836			  0.23997			 0.21669
	4.00			  10.08467			  0.22475			 0.07653
	4.25			  10.11041			  0.11624			 0.03200
	4.50			  10.09270			  0.11186			 -0.06772
	4.75			  10.07776			  0.06986			 -0.08137
	5.00			  9.94905			  0.13286			 -0.00598
	5.25			  9.87651			  0.01052			 0.00373
	5.50			  9.86594			  -0.02080			 0.20769
	5.75			  9.88795			  0.07178			 0.15481
	6.00			  9.83877			  0.07686			 0.06907
	6.25			  9.85585			  0.01122			 0.04696
	6.50			  9.79769			  0.04973			 0.05800
	6.75			  9.87214			  0.02610			 0.04384
	7.00			  9.82145			  0.08806			 -0.00779
	7.25			  9.85212			  -0.01398			 -0.03457
	7.50			  9.84854			  0.02960			 -0.01164
	7.75			  9.77124			  -0.08976			 0.07786
	8.00			  9.90019			  -0.07961			 0.06403
	8.25			  10.02389			  -0.12879			 0.06893
	8.50			  9.90098			  -0.05738			 0.08281
	8.75			  9.89931			  -0.07996			 0.01118
	9.00			  10.17660			  -0.07856			 0.01214
	9.25			  10.21171			  -0.11672			 0.10391
	9.50			  10.26145			  -0.00138			 0.12439
	9.75			  10.14418			  0.01735			 0.05262
	10.00			  10.13727			  -0.00313			 0.08009
	10.25			  10.21966			  0.05533			 0.13656
	10.50			  10.26351			  0.07913			 0.14263
	10.75			  10.32429			  -0.04776			 0.04907
	11.00			  10.28497			  -0.01888			 0.13232
	11.25			  10.13107			  -0.17202			 0.08435
	11.50			  10.10032			  -0.20755			 -0.09986
	11.75			  10.22466			  -0.18182			 -0.04041
	12.00			  10.33502			  -0.05301			 0.03347
	12.25			  10.20973			  -0.07926			 0.09271
	12.50			  10.25136			  0.01122			 0.17742
	12.75			  10.23563			  0.10503			 0.11949
	13.00			  10.21775			  0.08841			 0.10146
	13.25			  10.17040			  0.25082			 0.11142
	13.50			  10.21990			  0.18589			 0.16011
	13.75			  10.26232			  0.21617			 0.23325
	14.00			  10.13147			  0.28163			 0.17566
	14.25			  10.08078			  0.21880			 0.02213
	14.50			  10.16547			  0.28320			 0.10153
	14.75			  10.23173			  0.30053			 0.08006
	15.00			  10.13536			  0.36319			 0.10666
	15.25			  10.35687			  0.35216			 0.19351
	15.50			  10.36005			  0.25380			 0.05931
	15.75			  10.25104			  0.29966			 0.07725
	16.00			  10.15594			  0.30281			 0.02703
	16.25			  10.13433			  0.22317			 -0.07874
	16.50			  10.04455			  0.15964			 -0.01519
	16.75			  9.99910			  0.02278			 0.12719
	17.00			  10.07450			  -0.10971			 0.10611
	17.25			  10.07903			  -0.03621			 0.06249
	17.50			  10.19511			  -0.11602			 0.13841
	17.75			  10.16301			  0.00212			 0.14389
	18.00			  10.17342			  0.04973			 0.13087
	18.25			  10.11288			  0.09366			 -0.01863
	18.50			  10.11351			  0.18449			 0.00485
	18.75			  10.16365			  0.25870			 0.00114
	19.00			  10.14362			  0.15876			 0.02953
	19.25			  10.00681			  0.25870			 0.17584
	19.50			  10.04789			  0.23560			 0.17914
	19.75			  10.05400			  0.13286			 0.11644
	20.00			  10.09230			  0.06110			 -0.04529
	20.25			  10.00093			  0.04570			 -0.01746
	20.50			  9.92863			  -0.05283			 -0.02241
	20.75			  10.03343			  0.01560			 0.01521
	21.00			  10.07990			  0.10643			 0.08196
	21.25			  10.14243			  -0.09869			 0.13358
	21.50			  10.28687			  -0.05878			 0.06268
	21.75			  10.22808			  0.05708			 -0.05294
	22.00			  10.12432			  0.07476			 -0.07054
	22.25			  10.04391			  0.06986			 -0.06057
	22.50			  10.05718			  0.01437			 -0.14655
	22.75			  10.02810			  -0.01380			 -0.15732
	23.00			  10.03374			  -0.12302			 -0.31419
	23.25			  10.08284			  -0.00085			 -0.24631
	23.50			  10.10962			  -0.11689			 0.02969
	23.75			  10.20369			  -0.05511			 0.09124
	24.00			  10.15681			  0.01157			 0.13433
	24.25			  10.14887			  0.12166			 0.15316
	24.50			  10.19471			  -0.03271			 0.16870
	24.75			  10.16484			  0.00702			 0.10929
	25.00			  10.22482			  0.11028			 -0.04532
	25.25			  10.23324			  0.06881			 -0.03230
	25.50			  10.14164			  0.00842			 -0.07297
	25.75			  9.99354			  -0.11899			 -0.09180
	26.00			  10.13917			  -0.16450			 -0.03042
	26.25			  10.10676			  -0.10061			 0.07775
	26.50			  10.11582			  -0.13859			 0.09711
	26.75			  10.15212			  -0.22715			 0.08606
	27.00			  10.13194			  -0.18917			 0.06011
	27.25			  10.19479			  -0.15924			 0.17211
	27.50			  10.29355			  -0.23695			 0.25598
	27.75			  10.11788			  -0.25813			 0.24306
	28.00			  10.16611			  -0.21455			 0.16799
	28.25			  10.12932			  -0.19652			 0.34234
	28.50			  10.18692			  -0.20475			 0.19568
	28.75			  10.10628			  -0.25341			 0.17032
	29.00			  10.05059			  -0.37417			 0.08194
	29.25			  10.09595			  -0.44960			 0.12673
	29.50			  10.02143			  -0.26793			 0.02721
	29.75			  10.14489			  -0.23835			 0.09165
	30.00			  10.14466			  -0.19110			 0.11200
	30.25			  10.18351			  -0.15329			 0.19802
	30.50			  10.25255			  -0.07261			 0.10657
	30.75			  10.27964			  -0.05196			 0.06274
	31.00			  10.30801			  -0.16222			 0.20908
	31.25			  10.29760			  -0.14244			 0.30005
	31.50			  10.35631			  -0.18672			 0.29923
	31.75			  10.31190			  0.05778			 0.26466
	32.00			  10.16682			  0.22667			 0.17323
	32.25			  10.24421			  0.17784			 0.02029
	32.50			  10.22895			  0.23385			 0.05227
	32.75			  10.26455			  0.21740			 -0.04069
	33.00			  10.36156			  0.09418			 -0.23246
	33.25			  10.20941			  0.07458			 -0.12735
	33.50			  10.12114			  -0.04058			 -0.14240
	33.75			  10.08499			  0.04448			 -0.11741
	34.00			  10.10811			  0.11991			 0.13458
	34.25			  10.20981			  0.21477			 0.30830
	34.50			  10.15824			  0.24855			 0.30131
	34.75			  10.16515			  0.13024			 0.37070
	35.00			  10.18025			  0.00107			 0.34301
	35.25			  10.13608			  0.09383			 0.24842
	35.50			  10.07140			  0.12516			 0.20865
	35.75			  10.15244			  0.09226			 0.30938
	36.00			  10.17088			  -0.01730			 0.40291
	36.25			  10.13512			  0.08123			 0.39499
	36.50			  10.10843			  0.09786			 0.33728
	36.75			  10.16555			  0.03170			 0.28546
	37.00			  10.20051			  0.08911			 0.26640
	37.25			  10.22045			  0.13601			 0.20093
	37.50			  10.08777			  -0.05861			 0.14592
	37.75			  10.12177			  -0.10831			 0.07287
	38.00			  10.08292			  -0.11812			 0.23114
	38.25			  10.12599			  -0.16572			 0.24200
	38.50			  10.27964			  -0.07751			 0.29728
	38.75			  10.17286			  -0.01240			 0.10581
	39.00			  10.13353			  -0.17832			 0.20654
	39.25			  10.10223			  -0.28911			 0.26299
	39.50			  10.13020			  -0.38064			 0.13294
	39.75			  10.13147			  -0.31064			 0.02139
	40.00			  10.12797			  -0.21595			 0.11951
	40.25			  10.03573			  -0.38327			 0.21859
	40.50			  9.99203			  -0.51663			 0.24368
	40.75			  10.04796			  -0.49966			 0.10047
	41.00			  10.08356			  -0.38064			 -0.00548
	41.25			  10.05996			  -0.40077			 0.09498
	41.50			  10.06719			  -0.41460			 -0.06153
	41.75			  10.03827			  -0.47480			 -0.06859
	42.00			  10.01340			  -0.35632			 -0.08495
	42.25			  10.02890			  -0.21945			 -0.11395
	42.50			  9.89876			  -0.19915			 -0.13931
	42.75			  9.85840			  -0.13964			 -0.12811
	43.00			  9.91147			  -0.16187			 -0.11505
	43.25			  9.93808			  -0.21455			 -0.18089
	43.50			  10.03446			  -0.05843			 -0.11198
	43.75			  10.11447			  -0.16064			 -0.14568
	44.00			  10.16214			  -0.07069			 -0.26233
	44.25			  10.16182			  -0.12984			 -0.25271
	44.50			  10.19376			  -0.13299			 -0.26093
	44.75			  10.15435			  -0.28088			 -0.21360
	45.00			  10.24699			  -0.03708			 -0.21543
	45.25			  10.14291			  0.14231			 -0.23195
	45.50			  10.18557			  0.04973			 -0.33770
	45.75			  10.18271			  0.11396			 -0.25655
	46.00			  10.12034			  0.18362			 -0.19665
	46.25			  10.11709			  -0.03376			 -0.09631
	46.50			  10.02151			  -0.11514			 -0.09812
	46.75			  9.99378			  -0.20195			 -0.04800
	47.00			  10.03573			  -0.15014			 0.01063
	47.25			  9.96470			  -0.08749			 0.00194
	47.50			  9.91846			  -0.13124			 0.15896
	47.75			  10.01968			  -0.14734			 0.14315
	48.00			  10.11891			  -0.13632			 0.09676
	48.25			  10.08626			  -0.23660			 0.11076
	48.50			  9.98440			  -0.12984			 0.03159
	48.75			  10.03525			  -0.14279			 0.04499
	49.00			  9.86300			  -0.09449			 0.09413
	49.25			  9.80246			  -0.10936			 0.28993
	49.50			  9.84235			  -0.14157			 0.26363
	49.75			  9.91266			  -0.11514			 0.27479
	50.00			  9.92331			  -0.06053			 0.18847
	50.25			  9.96001			  -0.05983			 0.16982
	50.50			  9.77998			  -0.04671			 0.02123
	50.75			  9.65786			  -0.22103			 0.00717
	51.00			  9.52732			  -0.14454			 -0.11267
	51.25			  9.61337			  -0.10236			 -0.11979
	51.50			  9.58342			  -0.02483			 -0.05762
	51.75			  9.62092			  -0.04216			 -0.03164
	52.00			  9.66342			  -0.12477			 -0.08552
	52.25			  9.73660			  -0.15277			 -0.14577
	52.50			  9.98504			  -0.17675			 -0.15592
	52.75			  10.03088			  -0.16257			 -0.13063
	53.00			  10.04304			  -0.14034			 -0.15745
	53.25			  10.08062			  -0.07699			 -0.12270
	53.50			  10.00435			  -0.03568			 -0.03906
	53.75			  10.03946			  -0.05178			 -0.05427
	54.00			  10.14744			  0.03590			 -0.12435
	54.25			  10.03605			  0.06565			 -0.13720
	54.50			  10.18049			  -0.02255			 -0.07746
	54.75			  10.15443			  -0.09921			 -0.16749
	55.00			  10.09985			  -0.35702			 -0.28114
	55.25			  10.21433			  -0.22085			 -0.29958
	55.50			  10.18780			  -0.08294			 -0.27142
	55.75			  10.27321			  -0.01013			 -0.29057
	56.00			  10.29410			  0.04063			 0.03663
	56.25			  10.27432			  -0.01783			 -0.01757
	56.50			  10.17842			  -0.04338			 -0.13601
	56.75			  10.15371			  -0.07244			 -0.12966
	57.00			  10.11375			  -0.13492			 -0.14476
	57.25			  10.21592			  -0.26251			 -0.01382
	57.50			  10.37030			  -0.16975			 -0.06511
	57.75			  10.35544			  -0.09011			 -0.05207
	58.00			  10.39755			  -0.16502			 -0.09736
	58.25			  10.29720			  -0.28771			 -0.09972
	58.50			  10.30682			  -0.26181			 0.13850
	58.75			  10.38317			  -0.19057			 0.01564
	59.00			  10.40756			  -0.20300			 0.00914
	59.25			  10.34281			  -0.12722			 -0.05590
	59.50			  10.25787			  -0.10166			 -0.01414
	59.75			  10.32954			  -0.23975			 -0.03462
	60.00			  10.29966			  -0.19110			 -0.00788
	60.25			  10.34495			  -0.31291			 0.03638
	60.50			  10.29959			  -0.39150			 -0.00245
	60.75			  10.37935			  -0.36524			 -0.03056
	61.00			  10.38643			  -0.26723			 0.10714
	61.25			  10.38952			  -0.34879			 0.09713
	61.50			  10.30260			  -0.36524			 0.10671
	61.75			  10.32962			  -0.40935			 0.15731
	62.00			  10.38786			  -0.28053			 0.08506
	62.25			  10.31722			  -0.34231			 0.02992
	62.50			  10.29355			  -0.44680			 0.02247
	62.75			  10.30046			  -0.44190			 0.04985
	63.00			  10.18692			  -0.45730			 0.05555
	63.25			  10.16698			  -0.46325			 -0.11342
	63.50			  10.04661			  -0.41582			 -0.05551
	63.75			  10.10660			  -0.43788			 -0.06974
	64.00			  10.09532			  -0.46518			 -0.19759
	64.25			  10.14354			  -0.34021			 -0.22565
	64.50			  10.18549			  -0.30469			 -0.16849
	64.75			  10.24588			  -0.24518			 -0.07496
	65.00			  10.29927			  -0.17640			 -0.20135
	65.25			  10.32263			  -0.14489			 -0.05489
	65.50			  10.26653			  -0.13772			 -0.04105
	65.75			  10.19741			  -0.24465			 -0.05427
	66.00			  10.15498			  -0.26811			 -0.06392
	66.25			  10.15276			  -0.21035			 -0.01881
	66.50			  10.11891			  -0.19635			 -0.02953
	66.75			  10.09524			  -0.23100			 0.06570
	67.00			  10.11558			  -0.31886			 -0.07585
	67.25			  10.18931			  -0.32481			 -0.00868
	67.50			  10.18510			  -0.31221			 0.01296
	67.75			  10.13711			  -0.29296			 0.10583
	68.00			  10.13361			  -0.29979			 -0.08222
	68.25			  10.12845			  -0.36454			 -0.15912
	68.50			  10.23857			  -0.34652			 -0.02140
	68.75			  10.29839			  -0.36927			 0.07010
	69.00			  10.35639			  -0.24168			 -0.15452
	69.25			  10.30435			  -0.24010			 -0.17250
	69.50			  10.36942			  -0.35894			 -0.07363
	69.75			  10.38094			  -0.34477			 -0.10666
	70.00			  10.41344			  -0.33566			 -0.07911
	70.25			  10.46238			  -0.31081			 -0.06383
	70.50			  10.53818			  -0.33776			 -0.14410
	70.75			  10.50981			  -0.28351			 -0.05459
	71.00			  10.46024			  -0.46133			 -0.00994
	71.25			  10.57345			  -0.40497			 0.00188
	71.50			  10.52674			  -0.26391			 -0.02811
	71.75			  10.49599			  -0.27073			 0.01076
	72.00			  10.39342			  -0.25866			 0.02737
	72.25			  10.32191			  -0.17990			 0.02685
	72.50			  10.30483			  -0.19092			 0.05892
	72.75			  10.34638			  -0.28333			 -0.01054
	73.00			  10.46238			  -0.39972			 0.04151
	73.25			  10.41678			  -0.45363			 0.14980
	73.50			  10.41320			  -0.33829			 0.03269
	73.75			  10.37054			  -0.26198			 -0.08135
	74.00			  10.32620			  -0.29733			 -0.08069
	74.25			  10.49456			  -0.29891			 -0.17780
	74.50			  10.42480			  -0.27528			 -0.12194
	74.75			  10.41439			  -0.25200			 -0.05560
	75.00			  10.40939			  -0.17290			 -0.03308
	75.25			  10.38420			  -0.07034			 -0.19165
	75.50			  10.27790			  -0.12144			 -0.18824
	75.75			  10.27519			  -0.10429			 -0.01059
	76.00			  10.34305			  -0.08994			 -0.06147
	76.25			  10.46111			  -0.03026			 0.01949
	76.50			  10.53381			  -0.10901			 0.06394
	76.75			  10.58426			  0.07721			 0.06964
	77.00			  10.65378			  -0.06666			 -0.06745
	77.25			  10.58974			  0.00737			 -0.10868
	77.50			  10.31659			  -0.01398			 -0.15040
	77.75			  10.35051			  -0.15084			 -0.14181
	78.00			  10.38793			  -0.19757			 -0.11487
	78.25			  10.28473			  -0.12949			 -0.08428
	78.50			  10.26669			  -0.08364			 -0.04108
	78.75			  10.20289			  -0.04741			 0.14583
	79.00			  10.35457			  -0.01608			 0.28569
	79.25			  10.20059			  -0.11251			 0.17550
	79.50			  10.20917			  -0.13947			 0.11745
	79.75			  10.13322			  -0.12267			 0.10636
	80.00			  10.20393			  -0.27563			 -0.03045
	80.25			  10.26900			  -0.27931			 -0.04367
	80.50			  10.15379			  -0.34039			 -0.08974
	80.75			  10.13544			  -0.26093			 -0.15168
	81.00			  10.20520			  -0.26023			 -0.08396
	81.25			  10.27654			  -0.25148			 -0.08669
	81.50			  10.17898			  -0.17097			 -0.13083
	81.75			  10.20218			  -0.07926			 -0.13846
	82.00			  10.41693			  0.00282			 -0.13193
	82.25			  10.51776			  -0.08941			 -0.02096
	82.50			  10.55375			  -0.00208			 -0.10944
	82.75			  10.59610			  -0.14892			 -0.21573
	83.00			  10.46111			  -0.15067			 -0.15665
	83.25			  10.27718			  -0.12337			 -0.08291
	83.50			  10.29061			  -0.17447			 -0.04335
	83.75			  10.13115			  -0.09484			 -0.13340
	84.00			  10.15864			  -0.07226			 -0.14302
	84.25			  10.07013			  0.03783			 0.10709
	84.50			  10.12575			  0.10416			 0.19181
	84.75			  10.10445			  0.03065			 0.14024
	85.00			  10.04407			  0.04483			 0.12883
	85.25			  10.00744			  0.00807			 0.06904
	85.50			  10.08626			  -0.03218			 0.07880
	85.75			  10.10430			  0.03783			 -0.04502
	86.00			  10.22554			  0.05410			 -0.00827
	86.25			  10.32040			  0.14021			 0.05906
	86.50			  10.30157			  0.21582			 0.24464
	86.75			  10.36744			  0.04045			 0.17390
	87.00			  10.33327			  0.06215			 0.09521
	87.25			  10.30968			  -0.01100			 0.08041
	87.50			  10.30904			  -0.09204			 0.00589
	87.75			  10.30149			  -0.08416			 -0.01432
	88.00			  10.39270			  -0.23958			 0.09690
	88.25			  10.43656			  -0.26986			 0.11275
	88.50			  10.33486			  -0.27301			 0.10714
	88.75			  10.27845			  -0.24623			 0.08222
	89.00			  10.28433			  -0.23853			 0.06364
	89.25			  10.45793			  -0.25271			 0.07367
	89.50			  10.44879			  -0.04828			 0.05731
	89.75			  10.48614			  -0.02238			 0.24480
	90.00			  10.36195			  -0.10569			 0.06066
	90.25			  10.41209			  -0.10621			 0.03695
	90.50			  10.42631			  -0.11496			 0.07954
	90.75			  10.35679			  -0.15067			 -0.09148
	91.00			  10.48089			  -0.13142			 -0.19935
	91.25			  10.43839			  -0.08609			 -0.20774
	91.50			  10.37022			  -0.24220			 -0.09251
	91.75			  10.26749			  -0.23923			 -0.10442
	92.00			  10.24286			  -0.31466			 -0.11253
	92.25			  10.37832			  -0.37889			 -0.02300
	92.50			  10.39238			  -0.39535			 0.00976
	92.75			  10.33669			  -0.31711			 0.05594
	93.00			  10.39238			  -0.30906			 0.08581
	93.25			  10.39397			  -0.39832			 -0.03750
	93.50			  10.38015			  -0.53011			 -0.14061
	93.75			  10.39715			  -0.42912			 -0.02532
	94.00			  10.31746			  -0.52731			 -0.12437
	94.25			  10.41805			  -0.50316			 -0.27889
	94.50			  10.55073			  -0.34319			 -0.13239
	94.75			  10.43235			  -0.26093			 -0.01224
	95.00			  10.43950			  -0.33374			 0.07807
	95.25			  10.55613			  -0.36297			 0.11023
	95.50			  10.59912			  -0.36419			 -0.01457
	95.75			  10.53706			  -0.37399			 0.02165
	96.00			  10.58537			  -0.47708			 0.11328
	96.25			  10.63344			  -0.27196			 -0.08524
	96.50			  10.75873			  -0.21368			 0.04659
	96.75			  10.71646			  -0.22645			 0.00160
	97.00			  10.60905			  -0.25778			 -0.07358
	97.25			  10.57504			  -0.29348			 0.09770
	97.50			  10.50830			  -0.25288			 0.02435
	97.75			  10.40176			  -0.13352			 0.05308
	98.00			  10.33701			  -0.16275			 0.00570
	98.25			  10.34996			  -0.07331			 -0.03020
	98.50			  10.28354			  -0.06001			 0.13225
	98.75			  10.36037			  -0.10656			 0.11832
	99.00			  10.34749			  -0.11847			 -0.02064
	99.25			  10.29800			  -0.25341			 0.21318
	99.50			  10.39072			  -0.26093			 0.11339
	99.75			  10.35536			  -0.15504			 0.05271
	100.00			  10.44935			  -0.21228			 0.12595
	100.25			  10.35854			  -0.19040			 -0.02319
	100.50			  10.35870			  -0.19775			 -0.02367
	100.75			  10.35981			  -0.14122			 0.00359
	101.00			  10.30650			  -0.12214			 0.00167
	101.25			  10.37157			  -0.15592			 0.20061
	101.50			  10.34106			  -0.24133			 0.16819
	101.75			  10.26955			  -0.20615			 0.15651
	102.00			  10.22109			  -0.19320			 0.25162
	102.25			  10.32596			  -0.25025			 0.11067
	102.50			  10.33113			  -0.25621			 -0.04992
	102.75			  10.23587			  -0.24360			 0.02985
	103.00			  10.28846			  -0.18777			 0.02918
	103.25			  10.31738			  -0.18025			 0.15772
	103.50			  10.26995			  -0.07279			 0.32754
	103.75			  10.25938			  0.09926			 0.24468
	104.00			  10.27527			  0.12656			 0.22413
	104.25			  10.21910			  0.06565			 0.27515
	104.50			  10.34622			  0.02453			 0.27162
	104.75			  10.35735			  0.14301			 0.22741
	105.00			  10.29831			  0.22265			 0.15616
	105.25			  10.25406			  0.05410			 0.05752
	105.50			  10.20869			  0.10976			 -0.07700
	105.75			  10.26375			  0.04220			 0.01379
	106.00			  10.18716			  -0.12127			 0.10215
	106.25			  10.27241			  -0.24290			 0.10634
	106.50			  10.33796			  -0.27598			 0.24583
	106.75			  10.30070			  -0.23765			 0.23415
	107.00			  10.34154			  -0.27686			 0.18168
	107.25			  10.36545			  -0.18270			 0.24122
	107.50			  10.40414			  -0.10341			 0.18760
	107.75			  10.43282			  -0.05178			 0.19335
	108.00			  10.56352			  -0.11269			 0.21165
	108.25			  10.62327			  -0.04898			 0.06002
	108.50			  10.61095			  -0.14997			 0.10286
	108.75			  10.54390			  0.02330			 0.05612
	109.00			  10.54954			  0.03660			 0.04746
	109.25			  10.50902			  -0.14262			 0.05308
	109.50			  10.51649			  -0.17027			 0.00174
	109.75			  10.35743			  -0.19250			 -0.01778
	110.00			  10.35512			  -0.26286			 -0.12231
	110.25			  10.38738			  -0.15154			 -0.11672
	110.50			  10.31238			  -0.18830			 -0.13324
	110.75			  10.33176			  -0.13527			 0.00430
	111.00			  10.27329			  -0.03096			 0.09204
	111.25			  10.18645			  -0.09641			 -0.05888
	111.50			  10.18740			  -0.03726			 -0.03320
	111.75			  10.12257			  -0.04041			 -0.08327
	112.00			  10.09746			  -0.08521			 -0.04625
	112.25			  10.12408			  -0.00628			 -0.03542
	112.50			  10.12956			  0.01402			 -0.00779
	112.75			  10.31889			  0.04815			 -0.00328
	113.00			  10.40819			  -0.03323			 0.20063
	113.25			  10.36283			  -0.12389			 0.18569
	113.50			  10.31444			  -0.06788			 0.20995
	113.75			  10.28036			  -0.00995			 0.16011
	114.00			  10.30268			  0.01700			 0.07035
	114.25			  10.41209			  -0.00330			 0.02889
	114.50			  10.33280			  -0.00348			 -0.10692
	114.75			  10.28330			  0.05043			 0.00178
	115.00			  10.40009			  0.02348			 0.14066
	115.25			  10.39755			  0.00405			 0.11365
	115.50			  10.38158			  -0.03586			 0.04735
	115.75			  10.54763			  0.00405			 0.00499
	116.00			  10.57782			  0.02663			 0.15117
	116.25			  10.57067			  0.04413			 0.19291
	116.50			  10.45642			  0.08491			 0.12686
	116.75			  10.49257			  0.03905			 0.09747
	117.00			  10.51863			  -0.09186			 0.01626
	117.25			  10.69851			  -0.08591			 -0.05457
	117.50			  10.66077			  -0.08154			 -0.02868
	117.75			  10.60126			  -0.18707			 0.04856
	118.00			  10.65068			  -0.07016			 0.00369
	118.25			  10.50052			  -0.02115			 -0.04788
	118.50			  10.45491			  -0.04531			 -0.01175
	118.75			  10.37530			  -0.12564			 -0.02218
	119.00			  10.34082			  -0.13649			 -0.08815
	119.25			  10.33470			  -0.07856			 -0.09807
	119.50			  10.34829			  -0.04916			 -0.07590
	119.75			  10.28195			  0.06863			 0.05633
	120.00			  10.24739			  -0.00908			 0.12877
	120.25			  10.26947			  -0.05476			 0.00676
	120.50			  10.22856			  -0.00173			 -0.03191
	120.75			  10.23587			  0.08456			 0.00304
	121.00			  10.33224			  0.01105			 -0.00871
	121.25			  10.30102			  0.17924			 -0.11523
	121.50			  10.29943			  0.19552			 -0.03844
	121.75			  10.21894			  0.28040			 0.00705
	122.00			  10.14760			  0.24365			 0.04760
	122.25			  10.21338			  0.18537			 -0.11475
	122.50			  10.25851			  0.18397			 -0.10032
	122.75			  10.18383			  0.06093			 0.01324
	123.00			  10.14990			  0.17557			 0.05660
	123.25			  10.15189			  0.14861			 -0.02965
	123.50			  10.17596			  0.00947			 -0.18416
	123.75			  10.15300			  0.14774			 -0.13278
	124.00			  10.21410			  0.04990			 -0.23534
	124.25			  10.26026			  0.07966			 -0.23644
	124.50			  10.25732			  0.09961			 -0.12737
	124.75			  10.20734			  0.01402			 -0.08399
	125.00			  10.32533			  0.01052			 -0.09390
	125.25			  10.31397			  -0.04461			 -0.02199
	125.50			  10.39747			  -0.04251			 -0.08841
	125.75			  10.37927			  -0.01293			 0.05910
	126.00			  10.37959			  -0.03726			 0.05111
	126.25			  10.31444			  0.02698			 0.06698
	126.50			  10.23150			  0.04220			 -0.01517
	126.75			  10.24429			  0.08788			 -0.00722
	127.00			  10.27464			  0.11764			 0.03452
	127.25			  10.33589			  0.12236			 0.01001
	127.50			  10.16587			  0.18397			 0.01736
	127.75			  10.16786			  0.05550			 -0.09606
	128.00			  10.13266			  0.06425			 -0.03530
	128.25			  10.18653			  0.01367			 0.06455
	128.50			  10.25970			  0.15999			 -0.08967
	128.75			  10.31015			  0.25608			 -0.11613
	129.00			  10.33280			  0.08648			 -0.06623
	129.25			  10.49059			  0.03223			 -0.02639
	129.50			  10.58672			  0.05690			 -0.06712
	129.75			  10.63225			  0.03643			 -0.18242
	130.00			  10.49837			  0.19552			 -0.09603
	130.25			  10.38801			  0.24382			 0.07161
	130.50			  10.45849			  0.17277			 0.11181
	130.75			  10.38078			  0.09821			 0.10474
	131.00			  10.51085			  0.12516			 0.11809
	131.25			  10.39381			  0.03030			 0.02827
	131.50			  10.46858			  0.02785			 -0.06160
	131.75			  10.55923			  0.02085			 -0.13131
	132.00			  10.52149			  -0.10446			 -0.06905
	132.25			  10.52149			  -0.10341			 0.04057
	132.50			  10.54406			  -0.10376			 0.04412
	132.75			  10.52340			  -0.08801			 0.09003
	133.00			  10.56670			  -0.00995			 0.09026
	133.25			  10.57385			  -0.10201			 0.07028
	133.50			  10.52697			  -0.10166			 -0.00346
	133.75			  10.38039			  -0.23730			 0.04252
	134.00			  10.33756			  -0.26898			 -0.01040
	134.25			  10.28155			  -0.25095			 -0.09056
	134.50			  10.14831			  -0.07139			 0.02270
	134.75			  10.14450			  0.05655			 0.13614
	135.00			  10.14418			  0.15019			 0.19131
	135.25			  10.06362			  0.00825			 0.15880
	135.50			  10.08086			  0.04658			 0.00563
	135.75			  10.13663			  0.01647			 0.01651
	136.00			  10.10398			  -0.11216			 -0.05709
	136.25			  10.21338			  -0.04566			 0.01736
	136.50			  10.19805			  -0.05423			 -0.05505
	136.75			  10.13735			  -0.01853			 -0.00142
	137.00			  10.08141			  -0.03953			 -0.00019
	137.25			  10.05472			  -0.16205			 -0.16975
	137.50			  10.02079			  -0.20002			 -0.14339
	137.75			  9.96303			  -0.08766			 -0.16728
	138.00			  10.00466			  -0.11864			 -0.26015
	138.25			  9.99418			  -0.20475			 -0.20059
	138.50			  9.93236			  -0.27511			 -0.11459
	138.75			  9.84314			  -0.27213			 -0.10602
	139.00			  9.83408			  -0.25831			 -0.06676
	139.25			  9.83504			  -0.17745			 -0.11794
	139.50			  9.97988			  -0.25516			 -0.10101
	139.75			  9.90305			  -0.16170			 -0.12353
	140.00			  9.86721			  -0.16905			 -0.05837
	140.25			  9.83821			  -0.09081			 -0.11800
	140.50			  9.92490			  0.06093			 -0.12139
	140.75			  9.95151			  -0.04128			 -0.06848
	141.00			  10.08793			  -0.09239			 -0.10870
	141.25			  9.93689			  -0.16292			 0.00795
	141.50			  10.00641			  -0.16450			 0.02472
	141.75			  10.11788			  -0.07786			 -0.00108
	142.00			  10.04209			  -0.11409			 -0.04715
	142.25			  10.01078			  -0.16222			 -0.05485
	142.50			  10.04709			  -0.12477			 -0.01194
	142.75			  9.98123			  -0.13422			 0.08073
	143.00			  9.93650			  -0.06893			 -0.04946
	143.25			  9.94722			  -0.02641			 0.05493
	143.50			  10.08459			  -0.05826			 0.10134
	143.75			  10.14934			  -0.07384			 0.05832
	144.00			  10.21068			  0.09191			 -0.03489
	144.25			  10.18605			  0.06093			 0.09882
	144.50			  10.25247			  0.00212			 -0.08151
	144.75			  10.16857			  0.03450			 -0.03100
	145.00			  10.00157			  0.02540			 -0.04816
	145.25			  10.04987			  -0.06771			 0.03202
	145.50			  10.02937			  -0.07734			 0.17628
	145.75			  10.10644			  0.01157			 0.18540
	146.00			  10.06822			  0.06688			 0.09450
	146.25			  10.17604			  0.03853			 0.03475
	146.50			  10.15165			  0.02820			 0.09786
	146.75			  10.17866			  0.19902			 0.17999
	147.00			  10.16968			  0.12586			 0.31132
	147.25			  10.07283			  0.00142			 0.24665
	147.50			  10.13488			  -0.05161			 0.22051
	147.75			  10.15451			  -0.02115			 0.30489
	148.00			  10.20869			  -0.00908			 0.32276
	148.25			  10.23404			  -0.05371			 0.26306
	148.50			  10.36696			  0.04045			 0.29992
	148.75			  10.47398			  0.23980			 0.35664
	149.00			  10.54056			  0.26255			 0.29068
	149.25			  10.41129			  0.34271			 0.17976
	149.50			  10.34583			  0.30998			 0.15174
	149.75			  10.40351			  0.29213			 0.06398
	150.00			  10.34749			  0.09751			 0.04778
	150.25			  10.25176			  0.16927			 0.03069
	150.50			  10.24151			  0.29861			 0.03289
	150.75			  10.23221			  0.27235			 0.11413
	151.00			  10.17850			  0.32101			 0.09740
	151.25			  10.22736			  0.25328			 0.18320
	151.50			  10.17270			  0.17102			 0.02795
	151.75			  10.22729			  0.16472			 0.12948
	152.00			  10.15220			  0.06215			 0.11058
	152.25			  9.92037			  0.04080			 0.09312
	152.50			  9.90098			  -0.01993			 0.12480
	152.75			  9.85665			  -0.10324			 0.04849
	153.00			  9.81780			  -0.19722			 0.10748
	153.25			  9.89629			  -0.26076			 0.04384
	153.50			  9.87166			  -0.30871			 -0.05214
	153.75			  9.86054			  -0.29733			 -0.07384
	154.00			  9.90654			  -0.24483			 -0.07503
	154.25			  9.87429			  -0.11374			 -0.01079
	154.50			  9.87802			  -0.24343			 0.07154
	154.75			  9.80604			  -0.22383			 -0.02044
	155.00			  9.86253			  -0.34547			 -0.06245
	155.25			  9.92855			  -0.40375			 0.03573
	155.50			  9.90646			  -0.25323			 0.07887
	155.75			  9.98401			  -0.23153			 -0.01867
	156.00			  9.99108			  -0.16397			 0.02277
	156.25			  10.12702			  -0.22033			 -0.08909
	156.50			  10.02532			  -0.34897			 -0.03191
	156.75			  10.07808			  -0.27581			 -0.08948
	157.00			  9.93665			  -0.18515			 -0.15058
	157.25			  9.82995			  -0.13002			 -0.13415
	157.50			  9.71054			  -0.13282			 -0.14497
	157.75			  9.71459			  -0.05266			 -0.00225
	158.00			  9.68670			  -0.03778			 0.04311
	158.25			  9.76170			  -0.03848			 0.04071
	158.50			  9.81509			  -0.09886			 0.20155
	158.75			  9.89161			  -0.03988			 0.17399
	159.00			  9.98933			  -0.07489			 0.11168
	159.25			  9.97225			  -0.13684			 0.08797
	159.50			  9.97479			  -0.25253			 0.21580
	159.75			  9.95533			  -0.18637			 0.18508
	160.00			  9.84163			  -0.21963			 0.09986
	160.25			  9.83289			  -0.30521			 0.07560
	160.50			  9.80222			  -0.23818			 0.13976
	160.75			  9.88056			  -0.18112			 0.13871
	161.00			  9.86523			  -0.06071			 0.14295
	161.25			  9.82066			  -0.20317			 0.15410
	161.50			  9.75900			  -0.19250			 0.25277
	161.75			  9.81128			  -0.28963			 0.34502
	162.00			  9.82940			  -0.29033			 0.28216
	162.25			  9.70124			  -0.26811			 0.19518
	162.50			  9.83059			  -0.29191			 0.09335
	162.75			  9.78466			  -0.29909			 0.13928
	163.00			  9.93228			  -0.30731			 0.14909
	163.25			  9.90805			  -0.26846			 0.04957
	163.50			  9.77958			  -0.25446			 0.04167
	163.75			  9.77632			  -0.24343			 0.23073
	164.00			  9.88938			  -0.21560			 0.06907
	164.25			  9.79404			  -0.22593			 -0.15569
	164.50			  9.82534			  -0.37434			 -0.02296
	164.75			  9.77704			  -0.36122			 0.05583