--------------TurbSim v2.00.* User Time Series Input File-----------------------
     Time series input from low-res turbsim run
--------------------------------------------------------------------------------
          3 nComp - Number of velocity components in the file
          1 nPoints - Number of time series points contained in this file (-)
          1 RefPtID - Index of the reference point (1-nPoints)
     Pointyi Pointzi ! nPoints listed in order of increasing height
       (m)     (m)
       3.44768   94.00000
--------Time Series-------------------------------------------------------------
Elapsed Time         Point01u             Point01v           Point01w
         (s)            (m/s)                (m/s)              (m/s)
	0.00			  9.67801			  -0.17706			 0.54358
	0.25			  9.96894			  -0.14344			 0.50441
	0.50			  10.04645			  -0.09700			 0.54424
	0.75			  10.09773			  -0.18421			 0.51331
	1.00			  9.91427			  -0.23653			 0.50063
	1.25			  9.75121			  -0.02913			 0.38299
	1.50			  9.87045			  0.13477			 0.39127
	1.75			  9.80238			  -0.00707			 0.41998
	2.00			  10.04342			  0.19403			 0.52461
	2.25			  10.01754			  0.07993			 0.40343
	2.50			  9.97908			  0.33818			 0.54855
	2.75			  9.83548			  0.46426			 0.48564
	3.00			  9.81835			  0.37390			 0.30097
	3.25			  9.53721			  0.46321			 0.40957
	3.50			  9.63360			  0.65590			 0.08579
	3.75			  9.71088			  0.50818			 -0.00134
	4.00			  9.65190			  0.66598			 0.08674
	4.25			  9.57066			  0.79837			 -0.02409
	4.50			  9.48068			  0.56365			 0.02217
	4.75			  9.56530			  0.53129			 0.08040
	5.00			  9.52824			  0.68658			 -0.21907
	5.25			  9.57218			  0.43148			 -0.10507
	5.50			  9.37159			  0.60568			 -0.18719
	5.75			  9.53779			  0.59286			 -0.20767
	6.00			  9.60015			  0.50040			 0.01545
	6.25			  9.52416			  0.34049			 0.00557
	6.50			  9.79352			  0.34574			 -0.11675
	6.75			  9.74305			  -0.09511			 -0.00124
	7.00			  9.31913			  -0.21005			 -0.12210
	7.25			  9.45656			  -0.43153			 -0.19584
	7.50			  9.60435			  -0.29810			 0.06489
	7.75			  9.45201			  -0.24851			 0.43725
	8.00			  9.41366			  -0.18652			 0.30622
	8.25			  9.35212			  0.04337			 0.30854
	8.50			  9.26109			  -0.02997			 0.13863
	8.75			  9.29897			  0.16293			 0.14426
	9.00			  9.23929			  0.21210			 -0.06004
	9.25			  9.14931			  0.37810			 -0.08038
	9.50			  8.95560			  0.30414			 0.00055
	9.75			  9.00362			  0.67586			 -0.14376
	10.00			  9.21808			  0.99148			 -0.05124
	10.25			  9.37695			  0.91016			 -0.13359
	10.50			  9.24675			  1.03897			 -0.24376
	10.75			  9.34641			  1.07238			 -0.17257
	11.00			  9.49245			  0.82547			 -0.11202
	11.25			  9.20456			  0.76559			 0.14412
	11.50			  8.98765			  0.82169			 0.40981
	11.75			  9.04523			  0.72251			 0.21862
	12.00			  9.04231			  0.55672			 0.04942
	12.25			  8.71304			  0.43757			 0.04970
	12.50			  8.56070			  0.38399			 0.22202
	12.75			  8.76607			  0.47708			 -0.00380
	13.00			  8.77237			  0.22219			 0.01025
	13.25			  8.77575			  0.26022			 0.16058
	13.50			  8.80570			  0.09023			 -0.05952
	13.75			  8.89289			  0.18583			 0.25329
	14.00			  8.96096			  0.13498			 0.32121
	14.25			  8.93368			  0.13057			 0.28574
	14.50			  8.96329			  0.10956			 0.25665
	14.75			  8.83869			  0.16419			 0.34330
	15.00			  8.97506			  -0.03312			 0.10500
	15.25			  8.87051			  -0.21783			 -0.07697
	15.50			  9.08742			  0.04631			 -0.07773
	15.75			  8.97646			  0.10914			 -0.02986
	16.00			  9.30864			  0.08182			 -0.04292
	16.25			  9.21412			  0.50355			 -0.09377
	16.50			  8.97389			  0.13309			 0.00827
	16.75			  8.86876			  0.36655			 -0.21973
	17.00			  8.64998			  0.38882			 -0.02480
	17.25			  8.78274			  0.24068			 0.16389
	17.50			  8.92319			  0.05156			 0.30310
	17.75			  8.99604			  0.45690			 0.25953
	18.00			  8.96678			  0.84922			 0.34610
	18.25			  9.09371			  0.78219			 0.25523
	18.50			  9.20001			  0.48191			 0.38124
	18.75			  9.22857			  0.48212			 0.04393
	19.00			  9.15432			  0.33860			 0.19866
	19.25			  9.35247			  0.34953			 0.33597
	19.50			  9.45656			  0.34974			 0.46828
	19.75			  9.31424			  0.60442			 0.58639
	20.00			  9.30981			  0.58172			 0.29066
	20.25			  9.25212			  0.32452			 0.20230
	20.50			  9.23428			  0.28207			 0.29473
	20.75			  9.16715			  0.64770			 0.40896
	21.00			  9.04721			  0.65695			 0.53918
	21.25			  9.09756			  0.41509			 0.24260
	21.50			  9.01889			  0.40374			 0.31909
	21.75			  8.93881			  0.36949			 0.28720
	22.00			  9.11773			  0.26842			 0.15329
	22.25			  8.95233			  0.28502			 0.27036
	22.50			  9.11714			  0.16209			 0.18820
	22.75			  8.92622			  0.42875			 0.13224
	23.00			  8.89942			  0.33167			 0.33020
	23.25			  8.94207			  0.29300			 0.20409
	23.50			  9.19524			  0.46468			 0.13820
	23.75			  8.91002			  0.43589			 -0.23340
	24.00			  9.13136			  0.45922			 -0.15530
	24.25			  9.10887			  0.33019			 -0.19783
	24.50			  9.03171			  0.41929			 -0.39522
	24.75			  9.20934			  0.38840			 -0.38387
	25.00			  9.34373			  0.53066			 -0.06931
	25.25			  9.58756			  0.49557			 0.02884
	25.50			  9.63034			  0.04736			 0.01285
	25.75			  9.86812			  0.10199			 0.16006
	26.00			  9.86450			  0.02151			 0.24529
	26.25			  9.87150			  0.22618			 -0.02773
	26.50			  9.81124			  0.17365			 0.18267
	26.75			  9.90110			  -0.11759			 0.35314
	27.00			  9.78501			  -0.14050			 0.12907
	27.25			  9.94225			  0.24677			 -0.09779
	27.50			  10.02267			  0.31633			 -0.03871
	27.75			  10.15403			  0.25644			 -0.14811
	28.00			  10.21033			  0.13372			 -0.16912
	28.25			  10.36208			  0.04904			 -0.29040
	28.50			  10.41034			  0.13351			 -0.47052
	28.75			  10.22897			  0.11943			 -0.28955
	29.00			  9.98572			  0.17533			 -0.38505
	29.25			  9.92546			  0.14885			 -0.25469
	29.50			  9.95763			  -0.07032			 -0.16585
	29.75			  9.93770			  -0.24346			 -0.33269
	30.00			  10.00857			  -0.24767			 -0.28974
	30.25			  10.09831			  -0.22665			 -0.31722
	30.50			  10.09715			  -0.11612			 -0.26339
	30.75			  9.98118			  -0.01190			 -0.11969
	31.00			  9.85541			  0.05114			 0.13844
	31.25			  9.94481			  -0.00812			 0.02719
	31.50			  10.23445			  -0.11297			 -0.22593
	31.75			  10.29331			  -0.11318			 0.08910
	32.00			  10.24879			  -0.26700			 -0.01628
	32.25			  9.97267			  -0.37732			 0.22595
	32.50			  10.14086			  -0.51411			 0.35660
	32.75			  10.28784			  -0.45380			 0.02974
	33.00			  10.21475			  -0.37543			 0.03556
	33.25			  10.20392			  -0.18673			 -0.06832
	33.50			  10.36488			  -0.56181			 0.03948
	33.75			  10.19098			  -0.42838			 0.06058
	34.00			  10.08340			  -0.73181			 0.06020
	34.25			  9.97173			  -0.54101			 -0.19750
	34.50			  9.79538			  -0.51663			 -0.31358
	34.75			  9.81159			  -0.73349			 -0.13336
	35.00			  9.96393			  -0.52294			 0.01626
	35.25			  10.01894			  -0.86419			 -0.27838
	35.50			  10.02547			  -0.72193			 -0.05540
	35.75			  9.94971			  -0.54395			 0.01290
	36.00			  9.99598			  -0.37564			 0.04161
	36.25			  10.13841			  -0.50949			 0.07316
	36.50			  10.04085			  -0.49793			 -0.09509
	36.75			  9.99691			  -0.54374			 -0.14741
	37.00			  9.96427			  -0.60489			 0.03877
	37.25			  9.83839			  -0.60027			 0.01210
	37.50			  9.69992			  -0.55782			 -0.20663
	37.75			  9.81636			  -0.44834			 -0.14064
	38.00			  9.86707			  -0.40505			 -0.05890
	38.25			  9.89434			  -0.34811			 0.08059
	38.50			  9.69177			  -0.21173			 0.24345
	38.75			  9.91182			  0.00008			 0.18446
	39.00			  9.93572			  0.19088			 0.19042
	39.25			  9.65202			  0.46678			 0.24255
	39.50			  9.77860			  0.17071			 0.29104
	39.75			  9.98199			  -0.11444			 0.28995
	40.00			  9.87348			  -0.13693			 0.23754
	40.25			  10.04027			  -0.08565			 0.37036
	40.50			  10.08246			  -0.06737			 0.28900
	40.75			  9.96043			  0.07173			 0.52556
	41.00			  10.12641			  0.10514			 0.49940
	41.25			  9.93852			  -0.05876			 0.44879
	41.50			  9.95705			  -0.23317			 0.48795
	41.75			  10.31348			  -0.49961			 0.45479
	42.00			  10.15275			  -0.27414			 0.55536
	42.25			  10.07768			  -0.12285			 0.56411
	42.50			  9.88700			  -0.19261			 0.15022
	42.75			  9.92651			  -0.52231			 -0.04750
	43.00			  9.95856			  -0.57988			 -0.07385
	43.25			  9.80436			  -0.44246			 -0.04925
	43.50			  9.64258			  -0.03249			 0.07335
	43.75			  9.72767			  0.22765			 0.01607
	44.00			  9.55644			  -0.26658			 0.06701
	44.25			  9.40912			  -0.21047			 -0.01851
	44.50			  9.45994			  -0.09154			 -0.05928
	44.75			  9.36599			  -0.00286			 -0.34938
	45.00			  9.08264			  0.24656			 -0.37871
	45.25			  9.17495			  0.15663			 -0.13927
	45.50			  9.37287			  0.30603			 0.17344
	45.75			  9.52602			  0.62501			 -0.22635
	46.00			  9.56367			  0.43022			 -0.21268
	46.25			  9.72114			  0.37033			 -0.20578
	46.50			  9.65563			  0.34680			 -0.17158
	46.75			  9.87231			  0.28943			 -0.01212
	47.00			  9.92558			  0.23501			 -0.04869
	47.25			  9.92196			  0.19949			 0.07652
	47.50			  9.77639			  0.12679			 -0.21623
	47.75			  9.75785			  -0.00728			 -0.09320
	48.00			  9.61938			  0.23101			 0.03887
	48.25			  9.51612			  0.15600			 0.04667
	48.50			  9.52229			  0.18079			 0.16758
	48.75			  9.59852			  0.22513			 0.06867
	49.00			  9.58407			  0.58697			 0.20892
	49.25			  9.33102			  0.44535			 0.14700
	49.50			  9.36925			  0.06690			 0.05334
	49.75			  9.51297			  0.04883			 0.40560
	50.00			  9.61402			  -0.11528			 0.36057
	50.25			  9.83665			  0.15852			 0.38200
	50.50			  9.78023			  0.34091			 0.16985
	50.75			  9.50306			  0.32851			 0.04403
	51.00			  9.43592			  0.41572			 0.13451
	51.25			  9.33032			  0.26001			 0.11389
	51.50			  9.18929			  0.01164			 0.08702
	51.75			  9.01166			  0.32893			 0.04757
	52.00			  9.11901			  0.18121			 0.10471
	52.25			  9.11003			  0.39723			 -0.01014
	52.50			  9.20841			  0.25686			 -0.08563
	52.75			  9.22076			  0.16839			 0.09298
	53.00			  9.15561			  0.07615			 0.08125
	53.25			  9.04791			  -0.02724			 -0.13369
	53.50			  9.21866			  -0.04216			 0.04147
	53.75			  9.29314			  -0.26069			 0.47159
	54.00			  9.43965			  -0.09868			 0.42802
	54.25			  9.37905			  -0.24367			 0.24435
	54.50			  9.75494			  -0.22749			 0.24861
	54.75			  9.78524			  -0.32373			 0.28139
	55.00			  9.93630			  -0.57946			 0.25797
	55.25			  9.73279			  -0.58955			 0.09090
	55.50			  9.69095			  -0.54542			 0.17784
	55.75			  9.73699			  -0.26259			 -0.24253
	56.00			  9.55994			  -0.13483			 -0.29792
	56.25			  9.53686			  0.00050			 -0.19594
	56.50			  9.56798			  -0.01337			 -0.38041
	56.75			  9.40690			  -0.25754			 -0.54545
	57.00			  9.48196			  -0.15983			 -0.52469
	57.25			  9.85471			  0.11376			 -0.20970
	57.50			  9.92604			  -0.03711			 -0.45345
	57.75			  9.78396			  -0.04615			 -0.43453
	58.00			  9.63081			  0.15999			 -0.29291
	58.25			  9.90343			  0.18205			 -0.26372
	58.50			  9.89632			  0.37033			 -0.25123
	58.75			  9.73547			  0.38525			 -0.47256
	59.00			  9.78023			  0.15053			 -0.46414
	59.25			  9.62323			  0.03790			 -0.36954
	59.50			  9.56041			  0.11523			 -0.55832
	59.75			  9.48127			  0.35436			 -0.29130
	60.00			  9.61146			  0.25434			 -0.48022
	60.25			  9.37881			  0.46909			 -0.47639
	60.50			  9.20141			  0.49094			 -0.31273
	60.75			  9.24734			  0.37684			 -0.51277
	61.00			  8.94394			  0.46720			 -0.50330
	61.25			  8.89254			  0.47981			 -0.51589
	61.50			  9.04080			  0.50523			 -0.51546
	61.75			  8.89883			  0.43736			 -0.57185
	62.00			  8.79183			  0.36192			 -0.50945
	62.25			  8.77004			  0.40353			 -0.32871
	62.50			  8.69101			  0.10241			 -0.18037
	62.75			  8.80897			  -0.09574			 -0.08284
	63.00			  8.99860			  -0.19828			 -0.21831
	63.25			  9.28860			  -0.02514			 0.08352
	63.50			  9.00129			  -0.06023			 0.08253
	63.75			  9.17938			  -0.34222			 -0.26131
	64.00			  9.22123			  -0.34895			 -0.34413
	64.25			  9.26785			  -0.22119			 0.05088
	64.50			  9.38184			  -0.17244			 -0.18686
	64.75			  9.55201			  -0.25502			 0.01791
	65.00			  9.49910			  -0.41997			 -0.06335
	65.25			  9.38033			  -0.37963			 0.05978
	65.50			  9.50679			  -0.21888			 -0.05843
	65.75			  9.47520			  -0.20711			 0.07728
	66.00			  9.60120			  -0.11276			 0.33938
	66.25			  9.26645			  -0.23632			 0.36814
	66.50			  9.36716			  -0.36807			 0.20007
	66.75			  9.30258			  -0.41892			 0.33157
	67.00			  9.27986			  -0.54857			 0.40759
	67.25			  9.19419			  -0.58135			 0.25149
	67.50			  9.11668			  -0.38383			 0.06995
	67.75			  9.22764			  -0.62233			 0.05405
	68.00			  9.27088			  -0.81649			 -0.06221
	68.25			  9.20409			  -0.89256			 -0.00205
	68.50			  9.22193			  -1.16300			 0.16994
	68.75			  9.46063			  -1.11299			 0.19009
	69.00			  9.56449			  -1.09239			 0.09388
	69.25			  9.56787			  -0.87386			 0.08513
	69.50			  9.65389			  -0.77152			 0.15206
	69.75			  9.18894			  -0.85452			 0.20367
	70.00			  8.99219			  -0.64944			 0.22969
	70.25			  8.90105			  -0.70491			 0.42958
	70.50			  8.82913			  -0.57148			 0.45697
	70.75			  8.77610			  -0.73412			 0.49240
	71.00			  8.90583			  -0.79106			 0.50654
	71.25			  8.91876			  -0.91483			 0.56794
	71.50			  8.91375			  -0.69651			 0.59585
	71.75			  9.07005			  -0.59816			 0.48280
	72.00			  9.01516			  -0.70281			 0.43564
	72.25			  8.84044			  -0.70617			 0.79731
	72.50			  8.86725			  -0.45107			 0.65096
	72.75			  9.00327			  -0.15836			 0.67612
	73.00			  9.17449			  -0.04237			 0.64495
	73.25			  9.00303			  -0.45864			 0.43029
	73.50			  8.71176			  -0.37353			 0.41587
	73.75			  8.83717			  -0.55446			 0.18238
	74.00			  8.87412			  -0.56622			 -0.23865
	74.25			  8.97110			  -0.28402			 -0.09291
	74.50			  8.86328			  -0.06905			 -0.02300
	74.75			  9.07285			  -0.41997			 -0.16964
	75.00			  9.16784			  -0.20186			 -0.03303
	75.25			  9.34524			  -0.32268			 0.07870
	75.50			  9.36110			  -0.16887			 0.05628
	75.75			  9.44979			  -0.06968			 -0.14835
	76.00			  9.71881			  -0.06884			 -0.00474
	76.25			  9.82033			  0.00344			 0.27457
	76.50			  9.50201			  -0.22518			 -0.00474
	76.75			  9.22379			  -0.39013			 0.12784
	77.00			  9.37298			  -0.47839			 0.04166
	77.25			  9.36646			  -0.25082			 0.01082
	77.50			  9.51134			  -0.44435			 -0.04363
	77.75			  9.45352			  -0.49688			 -0.14168
	78.00			  9.25258			  -0.40358			 -0.07205
	78.25			  9.23486			  -0.25712			 -0.08090
	78.50			  9.27683			  -0.47209			 0.13139
	78.75			  9.30526			  -0.50087			 -0.07172
	79.00			  9.21295			  -0.32352			 0.24009
	79.25			  9.20759			  -0.30566			 0.16971
	79.50			  9.36098			  -0.76963			 0.20211
	79.75			  9.28533			  -0.80157			 0.07964
	80.00			  9.26878			  -0.94698			 -0.02120
	80.25			  9.57183			  -0.88121			 -0.05895
	80.50			  9.57358			  -0.72655			 0.19374
	80.75			  9.61810			  -0.81880			 0.23929
	81.00			  9.70738			  -0.65028			 0.26795
	81.25			  9.54852			  -0.69062			 0.17926
	81.50			  9.47334			  -0.63452			 0.17983
	81.75			  9.79853			  -0.59900			 0.27221
	82.00			  9.93176			  -0.47629			 0.34136
	82.25			  9.75098			  -0.60447			 0.51908
	82.50			  9.68466			  -0.55004			 0.33786
	82.75			  9.49117			  -0.70701			 0.24539
	83.00			  9.38767			  -0.63136			 0.46771
	83.25			  9.47287			  -0.62086			 0.29402
	83.50			  9.58080			  -0.74757			 0.25400
	83.75			  9.93094			  -0.67528			 0.36539
	84.00			  9.88024			  -0.59964			 0.12122
	84.25			  9.79504			  -0.58430			 0.01820
	84.50			  9.54036			  -0.47251			 0.09294
	84.75			  9.65808			  -0.39602			 0.21048
	85.00			  9.53092			  -0.14764			 0.14454
	85.25			  9.34175			  -0.43363			 0.11034
	85.50			  9.28766			  -0.45507			 -0.23789
	85.75			  9.28125			  -0.47104			 -0.11103
	86.00			  9.15549			  -0.32731			 -0.40851
	86.25			  8.95746			  -0.06422			 -0.18317
	86.50			  8.98357			  -0.10982			 -0.09580
	86.75			  8.97984			  -0.06653			 -0.37393
	87.00			  9.06458			  -0.11213			 -0.25464
	87.25			  8.88823			  -0.05224			 -0.05091
	87.50			  9.12985			  0.19760			 0.09213
	87.75			  9.12495			  0.13162			 0.19799
	88.00			  9.33161			  -0.09616			 0.23839
	88.25			  9.47124			  -0.11970			 0.29941
	88.50			  9.48127			  -0.08355			 0.22983
	88.75			  9.40515			  -0.04552			 0.14757
	89.00			  9.24897			  -0.36681			 0.31076
	89.25			  9.16819			  -0.17265			 0.05803
	89.50			  9.06376			  0.09716			 0.03130
	89.75			  9.36040			  -0.08292			 0.30210
	90.00			  9.44070			  -0.00707			 0.29028
	90.25			  9.06120			  -0.16382			 0.10954
	90.50			  9.01574			  0.01899			 0.23957
	90.75			  9.02040			  -0.07452			 0.10216
	91.00			  9.16656			  -0.05855			 -0.01865
	91.25			  9.25153			  -0.23716			 0.00283
	91.50			  9.24582			  -0.28213			 -0.22053
	91.75			  9.09138			  -0.34012			 -0.23539
	92.00			  8.99639			  -0.57946			 -0.00503
	92.25			  8.93683			  -0.54311			 -0.02778
	92.50			  8.87878			  -0.54710			 -0.07092
	92.75			  9.00571			  -0.65343			 0.16379
	93.00			  8.86491			  -0.59270			 0.10367
	93.25			  9.07355			  -0.70386			 -0.22867
	93.50			  8.98497			  -0.75450			 -0.34087
	93.75			  8.75442			  -0.52084			 -0.28293
	94.00			  8.79055			  -0.80304			 -0.36613
	94.25			  8.69975			  -0.57715			 -0.17593
	94.50			  8.72714			  -0.39245			 -0.25227
	94.75			  8.68775			  -0.47356			 0.04805
	95.00			  8.97075			  -0.64208			 -0.00796
	95.25			  8.97051			  -0.61645			 -0.13998
	95.50			  9.07169			  -0.52147			 -0.39725
	95.75			  8.89289			  -0.52567			 -0.27346
	96.00			  8.93718			  -0.68243			 -0.36282
	96.25			  9.10992			  -0.46767			 -0.35274
	96.50			  9.16819			  -0.51810			 0.05349
	96.75			  9.05607			  -0.58114			 0.28404
	97.00			  9.08952			  -0.34075			 0.46520
	97.25			  9.22717			  -0.62926			 0.48743
	97.50			  9.31284			  -0.58976			 0.18286
	97.75			  9.14348			  -0.45591			 -0.03483
	98.00			  9.18335			  -0.31260			 0.37008
	98.25			  9.16831			  -0.03817			 0.51657
	98.50			  8.95769			  0.00365			 0.30163
	98.75			  9.18906			  0.24887			 0.37859
	99.00			  9.30830			  0.01395			 0.19383
	99.25			  9.52556			  0.11523			 0.11980
	99.50			  9.48966			  0.21021			 0.05273
	99.75			  9.47019			  0.40500			 0.11526
	100.00			  9.57731			  0.28397			 0.19123
	100.25			  9.49210			  0.38378			 0.27514
	100.50			  9.41238			  0.37663			 0.39619
	100.75			  9.28697			  0.31191			 0.05859
	101.00			  9.22601			  0.38987			 -0.06997
	101.25			  9.36226			  0.30414			 -0.35889
	101.50			  9.45084			  0.22723			 0.07226
	101.75			  9.54619			  0.07825			 0.13716
	102.00			  9.49514			  -0.01610			 0.22278
	102.25			  9.40142			  -0.19324			 0.25982
	102.50			  9.32636			  -0.39581			 0.32074
	102.75			  9.32112			  -0.56307			 0.38786
	103.00			  9.20503			  -0.22560			 0.30428
	103.25			  9.17484			  -0.29894			 0.15377
	103.50			  9.20304			  -0.42270			 0.32155
	103.75			  9.31004			  -0.34811			 0.30788
	104.00			  9.29979			  -0.45885			 0.30031
	104.25			  9.28941			  -0.58766			 0.19847
	104.50			  9.39280			  -0.50613			 0.14643
	104.75			  9.50889			  -0.59816			 0.04805
	105.00			  9.66752			  -0.39896			 -0.51381
	105.25			  10.03374			  -0.30566			 -0.56716
	105.50			  10.15111			  -0.35084			 -0.33524
	105.75			  10.05274			  -0.41955			 -0.42199
	106.00			  10.22175			  -0.26448			 -0.27299
	106.25			  10.01125			  -0.41388			 -0.21859
	106.50			  9.93479			  -0.17643			 0.07851
	106.75			  10.31779			  -0.37585			 -0.07385
	107.00			  10.24984			  -0.36303			 -0.23581
	107.25			  10.58937			  -0.33991			 -0.21334
	107.50			  10.49414			  -0.30419			 -0.20984
	107.75			  9.96276			  -0.49247			 -0.27020
	108.00			  10.07360			  -0.31848			 -0.23260
	108.25			  10.30544			  -0.44225			 -0.44787
	108.50			  10.39134			  -0.52210			 -0.45832
	108.75			  10.37980			  -0.72887			 -0.54176
	109.00			  10.60440			  -0.50718			 -0.43188
	109.25			  10.72399			  -0.45885			 -0.31783
	109.50			  10.67783			  0.18226			 -0.27701
	109.75			  10.77516			  0.09632			 -0.28553
	110.00			  10.96748			  -0.20207			 -0.22938
	110.25			  11.07739			  -0.06569			 -0.37531
	110.50			  11.04802			  -0.00181			 -0.26382
	110.75			  10.91736			  -0.18820			 -0.04533
	111.00			  10.81689			  -0.17475			 0.10339
	111.25			  10.73704			  -0.46557			 -0.17512
	111.50			  10.80931			  -0.70281			 -0.03180
	111.75			  10.94650			  -0.72529			 0.07619
	112.00			  11.04965			  -0.97640			 0.19123
	112.25			  11.02867			  -0.83015			 0.29998
	112.50			  10.71560			  -0.52714			 0.30031
	112.75			  10.95734			  -0.35378			 0.51577
	113.00			  11.12494			  -0.70575			 0.38238
	113.25			  11.05315			  -0.53954			 0.47192
	113.50			  11.10781			  -0.39623			 0.19402
	113.75			  11.07389			  -0.35988			 0.05207
	114.00			  11.13170			  -0.39497			 -0.21325
	114.25			  11.08170			  -0.56980			 -0.28392
	114.50			  11.18800			  -0.51558			 -0.01368
	114.75			  11.12984			  -0.58682			 0.14459
	115.00			  11.27157			  -0.67066			 0.06947
	115.25			  11.32694			  -0.64965			 -0.13303
	115.50			  11.22635			  -0.73181			 0.03092
	115.75			  11.45165			  -0.83414			 0.18267
	116.00			  11.58674			  -0.90811			 0.05457
	116.25			  11.39769			  -0.90306			 0.05509
	116.50			  11.43941			  -0.88142			 -0.07749
	116.75			  11.19126			  -1.08042			 -0.26727
	117.00			  11.30736			  -0.80430			 -0.05323
	117.25			  11.33416			  -0.84843			 0.21857
	117.50			  11.08648			  -0.95034			 0.35314
	117.75			  11.16422			  -1.01527			 0.15963
	118.00			  11.22938			  -0.97808			 -0.28666
	118.25			  11.22821			  -0.77846			 -0.30331
	118.50			  11.38172			  -0.71016			 -0.25469
	118.75			  11.37950			  -0.62863			 -0.07759
	119.00			  10.98822			  -0.52924			 0.09388
	119.25			  10.79497			  -0.56791			 -0.01288
	119.50			  10.73553			  -0.55635			 -0.13851
	119.75			  10.81047			  -0.33256			 -0.27971
	120.00			  10.89906			  -0.17076			 -0.41570
	120.25			  10.86059			  -0.14449			 -0.13416
	120.50			  10.76910			  -0.14617			 -0.05465
	120.75			  10.60452			  -0.29137			 0.19657
	121.00			  10.63692			  -0.33949			 0.10065
	121.25			  10.54822			  -0.21320			 0.02373
	121.50			  10.51524			  -0.23254			 -0.20194
	121.75			  10.71816			  -0.20060			 -0.24877
	122.00			  10.73168			  0.04168			 -0.19948
	122.25			  10.63273			  0.01878			 -0.08781
	122.50			  10.67387			  -0.02976			 -0.34877
	122.75			  10.62305			  -0.14050			 -0.45510
	123.00			  10.82796			  -0.33991			 -0.51925
	123.25			  10.81490			  -0.34138			 -0.35596
	123.50			  10.84288			  -0.23170			 -0.19485
	123.75			  10.97074			  0.04547			 0.10547
	124.00			  10.89102			  -0.02955			 -0.00545
	124.25			  10.87330			  0.07404			 -0.01439
	124.50			  10.79206			  0.17890			 0.10102
	124.75			  10.88775			  0.22513			 0.30688
	125.00			  10.89626			  0.40878			 0.37424
	125.25			  10.85582			  0.04988			 0.54003
	125.50			  11.21259			  -0.16235			 0.35995
	125.75			  11.24745			  -0.18147			 0.36591
	126.00			  11.24966			  -0.09532			 0.47655
	126.25			  11.20840			  -0.12201			 0.28725
	126.50			  11.21504			  0.20811			 0.09965
	126.75			  11.50329			  0.01143			 -0.14991
	127.00			  11.21096			  -0.13966			 -0.07924
	127.25			  11.33148			  0.00575			 -0.01018
	127.50			  11.61063			  0.09001			 -0.00290
	127.75			  11.94061			  0.07026			 0.08385
	128.00			  11.90144			  -0.07662			 0.17902
	128.25			  11.71437			  0.15558			 0.02004
	128.50			  11.70878			  0.10325			 -0.12465
	128.75			  11.40480			  -0.00728			 0.11555
	129.00			  11.25654			  0.23101			 0.21625
	129.25			  11.20490			  0.14003			 0.17013
	129.50			  11.04289			  0.12132			 0.14771
	129.75			  10.94766			  0.09485			 0.17079
	130.00			  10.80325			  0.54201			 0.09691
	130.25			  10.64357			  0.33209			 -0.05961
	130.50			  10.81117			  0.31044			 -0.08842
	130.75			  10.98729			  0.20096			 0.06787
	131.00			  10.82982			  0.29174			 0.00060
	131.25			  10.68494			  0.33461			 -0.18222
	131.50			  10.62632			  0.12090			 -0.39181
	131.75			  10.67947			  0.16755			 -0.55917
	132.00			  10.68063			  0.20159			 -0.51589
	132.25			  10.77621			  0.35058			 -0.27233
	132.50			  10.76432			  0.56869			 -0.32010
	132.75			  10.32269			  0.34764			 -0.25464
	133.00			  10.25543			  0.18836			 -0.35866
	133.25			  10.28888			  -0.07179			 -0.57189
	133.50			  10.39798			  0.18415			 -0.70491
	133.75			  10.45206			  0.08959			 -0.17063
	134.00			  10.38143			  0.18647			 -0.24471
	134.25			  10.37106			  0.09695			 -0.33292
	134.50			  10.57025			  0.35289			 -0.34801
	134.75			  10.51664			  0.25623			 -0.53438
	135.00			  10.47771			  0.38000			 -0.23051
	135.25			  10.48901			  0.26463			 -0.16382
	135.50			  10.47841			  0.28228			 -0.35303
	135.75			  10.39915			  0.39492			 -0.24939
	136.00			  10.37957			  0.11145			 -0.15091
	136.25			  10.23270			  0.11166			 0.00651
	136.50			  10.31126			  0.04253			 -0.03114
	136.75			  10.33213			  -0.00959			 -0.15308
	137.00			  10.27991			  0.02908			 -0.42715
	137.25			  10.21137			  -0.05077			 -0.27171
	137.50			  10.47747			  -0.15479			 -0.31944
	137.75			  10.31150			  -0.19030			 -0.43670
	138.00			  10.01812			  -0.31323			 0.05211
	138.25			  10.06265			  -0.34391			 0.13787
	138.50			  9.99714			  -0.26763			 -0.18231
	138.75			  10.13573			  -0.35504			 0.03665
	139.00			  10.11090			  -0.14932			 -0.14249
	139.25			  10.02523			  0.11187			 -0.22020
	139.50			  10.09039			  -0.16466			 -0.15810
	139.75			  10.10379			  -0.07263			 0.05330
	140.00			  9.98864			  -0.14407			 0.17765
	140.25			  9.93211			  0.04505			 -0.19177
	140.50			  10.08654			  0.26337			 -0.02206
	140.75			  10.25893			  0.26148			 -0.03800
	141.00			  10.55254			  0.09296			 -0.26448
	141.25			  10.63238			  -0.05771			 -0.25615
	141.50			  10.62760			  0.21147			 -0.53807
	141.75			  10.44297			  0.14318			 -0.60235
	142.00			  10.30031			  0.08602			 -0.44035
	142.25			  10.40055			  -0.00013			 -0.57691
	142.50			  10.31837			  0.03328			 -0.73825
	142.75			  10.08841			  0.36739			 -0.58916
	143.00			  9.96882			  0.54747			 -0.43027
	143.25			  9.94889			  0.66556			 -0.32834
	143.50			  9.96218			  0.50986			 -0.06501
	143.75			  10.28224			  0.41803			 -0.32148
	144.00			  10.48225			  0.30351			 -0.50794
	144.25			  10.49332			  0.32410			 -0.62549
	144.50			  10.22000			  0.18562			 -0.65723
	144.75			  10.43633			  0.19088			 -0.58963
	145.00			  10.31639			  0.01080			 -0.26173
	145.25			  10.51034			  -0.34706			 -0.07972
	145.50			  10.49029			  -0.46998			 -0.15866
	145.75			  10.44274			  -0.39245			 -0.31798
	146.00			  10.31989			  -0.28066			 -0.13336
	146.25			  10.57771			  -0.16950			 -0.02754
	146.50			  10.65802			  -0.31932			 -0.05034
	146.75			  10.62200			  -0.23800			 0.35248
	147.00			  10.72178			  -0.56370			 0.25797
	147.25			  10.60475			  -0.47860			 -0.00933
	147.50			  10.52270			  -0.60825			 -0.33292
	147.75			  10.80814			  -0.67066			 -0.51518
	148.00			  10.89241			  -0.36702			 -0.35298
	148.25			  10.83565			  -0.58976			 -0.31684
	148.50			  10.90302			  -0.59501			 -0.17588
	148.75			  10.80803			  -0.56349			 -0.02522
	149.00			  10.72982			  -0.41703			 0.20078
	149.25			  10.80943			  -0.32752			 -0.00966
	149.50			  10.63925			  -0.23443			 -0.05640
	149.75			  10.76572			  -0.29621			 -0.07319
	150.00			  10.79625			  -0.34685			 -0.14088
	150.25			  10.93682			  -0.11486			 -0.26575
	150.50			  11.23276			  -0.27393			 -0.26987
	150.75			  11.10233			  -0.37858			 -0.27782
	151.00			  11.23474			  -0.30566			 -0.20762
	151.25			  11.12133			  -0.50024			 -0.18501
	151.50			  11.21166			  -0.48364			 -0.23042
	151.75			  11.22204			  -0.29305			 -0.09372
	152.00			  11.15420			  -0.07158			 -0.14759
	152.25			  11.10548			  -0.00686			 -0.25270
	152.50			  11.30339			  -0.03522			 -0.22659
	152.75			  11.20409			  -0.13398			 -0.28709
	153.00			  11.03438			  -0.29684			 -0.48524
	153.25			  11.12191			  -0.37501			 -0.33562
	153.50			  11.15082			  -0.58367			 -0.69355
	153.75			  11.47823			  -0.75555			 -0.51310
	154.00			  11.43359			  -0.71079			 -0.34957
	154.25			  11.21563			  -0.43090			 -0.32441
	154.50			  11.10373			  -0.17958			 -0.18260
	154.75			  10.99032			  -0.33403			 -0.21817
	155.00			  11.03403			  -0.36408			 -0.26514
	155.25			  11.08800			  -0.59438			 -0.16883
	155.50			  10.98997			  -0.72025			 0.04582
	155.75			  11.02249			  -1.03082			 0.06299
	156.00			  11.00046			  -1.05688			 0.16852
	156.25			  11.07168			  -0.73832			 -0.18033
	156.50			  11.32612			  -0.57421			 -0.29740
	156.75			  11.20071			  -0.68012			 -0.23922
	157.00			  11.09511			  -0.36303			 -0.06709
	157.25			  11.06888			  -0.14113			 -0.01548
	157.50			  10.80232			  -0.27246			 0.08414
	157.75			  10.87563			  -0.38593			 0.25386
	158.00			  10.99860			  -0.77573			 0.38313
	158.25			  11.14907			  -0.67696			 0.16867
	158.50			  11.24523			  -0.63052			 0.11162
	158.75			  11.32181			  -0.39182			 -0.18056
	159.00			  11.38859			  -0.24704			 -0.03856
	159.25			  11.32111			  -0.41871			 0.03390
	159.50			  11.41424			  -0.16677			 -0.12054
	159.75			  11.08077			  -0.03354			 -0.08719
	160.00			  11.26644			  -0.33004			 -0.18908
	160.25			  11.22903			  0.09254			 -0.25932
	160.50			  11.37018			  0.45753			 -0.06378
	160.75			  11.08718			  0.35226			 0.11455
	161.00			  10.86514			  0.27598			 0.04894
	161.25			  11.07086			  -0.12936			 -0.01122
	161.50			  11.02844			  0.09569			 0.01493
	161.75			  11.01946			  0.14612			 -0.14726
	162.00			  11.05816			  -0.02135			 -0.24333
	162.25			  11.14709			  -0.19198			 0.06347
	162.50			  11.34360			  -0.09553			 -0.05327
	162.75			  11.17378			  -0.02388			 0.03102
	163.00			  11.25980			  -0.27498			 0.08721
	163.25			  11.22845			  -0.60468			 -0.24901
	163.50			  11.22099			  -0.77825			 -0.26301
	163.75			  11.28929			  -1.19347			 -0.24877
	164.00			  11.30817			  -1.22078			 -0.06046
	164.25			  11.27064			  -1.22414			 0.03953
	164.50			  11.36890			  -1.00645			 0.02056
	164.75			  11.55679			  -0.96884			 -0.18714
	165.00			  11.58394			  -1.02893			 0.19634
	165.25			  11.48382			  -1.11467			 0.19137
	165.50			  11.53639			  -0.77951			 -0.12995
	165.75			  11.50876			  -0.90874			 -0.25838
	166.00			  11.47741			  -1.04974			 -0.46589
	166.25			  11.37741			  -0.91441			 -0.47289