FAST.Farm     v1.00.*       - INPUT FILE
Sample        FAST.Farm     - input file
--- SIMULATION CONTROL ---
False         Echo          - Echo input data to <RootName>.ech? (flag)
FATAL         AbortLevel    - Error level when simulation should abort (string) {"WARNING", "SEVERE", "FATAL"}
900           TMax          - Total run time (s) [>=0.0]
False         UseSC         - Use a super controller? (flag)
2           Mod_AmbWind   - Ambient wind model (-) (switch) {1: high-fidelity precursor in VTK format, 2: InflowWind module}
2             Mod_WaveField - Wave field handling (-) (switch) {1: use individual HydroDyn inputs without adjustment, 2: adjust wave phases based on turbine offsets from farm origin}
0             Mod_SharedMooring - Shared mooring system model (switch) {0: None, 3=MoorDyn}}
--- SUPER CONTROLLER --- [used only for UseSC=True]
/path/to/SC_DLL.dll SC_FileName   - Name/location of the dynamic library {.dll [Windows] or .so [Linux]} containing the Super Controller algorithms (quoated string)
--- SHARED MOORING SYSTEM --- [used only for Mod_SharedMoor>0]
""            SharedMoorFile - Name of file containing shared mooring system input parameters (quoted string) [used only when Mod_SharedMooring > 0]
0.04          DT_Mooring    - Time step for farm-level mooring coupling with each turbine (s) [used only when Mod_SharedMooring > 0]
--- AMBIENT WIND: PRECURSOR IN VTK FORMAT --- [used only for Mod_AmbWind=1]
2.0           DT_Low-VTK    - Time step for low -resolution wind data input files; will be used as the global FAST.Farm time step (s) [>0.0]
0.1           DT_High-VTK   - Time step for high-resolution wind data input files (s) [>0.0]
"unused"      WindFilePath  - Path name to wind data files from precursor (string)
False         ChkWndFiles   - Check all the ambient wind files for data consistency? (flag)
--- AMBIENT WIND: INFLOWWIND MODULE --- [used only for Mod_AmbWind=2 or 3]
3.0           DT_Low        - Time step for low -resolution wind data interpolation; will be used as the global FAST.Farm time step (s) [>0.0]
0.25          DT_High       - Time step for high-resolution wind data interpolation (s) [>0.0]
119           NX_Low        - Number of low -resolution spatial nodes in X direction for wind data interpolation (-) [>=2]
193           NY_Low        - Number of low -resolution spatial nodes in Y direction for wind data interpolation (-) [>=2]
39            NZ_Low        - Number of low -resolution spatial nodes in Z direction for wind data interpolation (-) [>=2]
-420          X0_Low        - Origin of low -resolution spatial nodes in X direction for wind data interpolation (m)
-893.0        Y0_Low        - Origin of low -resolution spatial nodes in Y direction for wind data interpolation (m)
1.0           Z0_Low        - Origin of low -resolution spatial nodes in Z direction for wind data interpolation (m)
28            dX_Low        - Spacing of low -resolution spatial nodes in X direction for wind data interpolation (m) [>0.0]
9.3           dY_Low        - Spacing of low -resolution spatial nodes in Y direction for wind data interpolation (m) [>0.0]
9.3           dZ_Low        - Spacing of low -resolution spatial nodes in Z direction for wind data interpolation (m) [>0.0]
39            NX_High       - Number of high-resolution spatial nodes in X direction for wind data interpolation (-) [>=2]
35            NY_High       - Number of high-resolution spatial nodes in Y direction for wind data interpolation (-) [>=2]
37            NZ_High       - Number of high-resolution spatial nodes in Z direction for wind data interpolation (-) [>=2]
"./NRELOffshrBsline5MW_InflowWind_Steady8mps.dat" InflowFile    - Name of file containing InflowWind module input parameters (quoted string)
--- WIND TURBINES ---
18            NumTurbines   - Number of wind turbines (-) [>=1] [last 6 columns used only for Mod_AmbWind=2]
WT_X            WT_Y            WT_Z            WT_FASTInFile   X0_High         Y0_High         Z0_High         dX_High         dY_High         dZ_High        
(m)             (m)             (m)             (string)        (m)             (m)             (m)             (m)             (m)             (m)            
0	-5.07635140e+02	0	"../5MW_Land_DLL_WTurb.T1.fst"	-76	-5.90750000e+02	1	4	4.65000000e+00	4.65000000e+00
-2.63679471e+01	-1.30555929e+02	0	"../5MW_Land_DLL_WTurb.T2.fst"	-104	-2.14100000e+02	1	4	4.65000000e+00	4.65000000e+00
-5.27358942e+01	2.46523282e+02	0	"../5MW_Land_DLL_WTurb.T3.fst"	-132	1.67200000e+02	1	4	4.65000000e+00	4.65000000e+00
5.02772281e+02	-4.72477877e+02	0	"../5MW_Land_DLL_WTurb.T4.fst"	424	-5.53550000e+02	1	4	4.65000000e+00	4.65000000e+00
4.76404334e+02	-9.53986664e+01	0	"../5MW_Land_DLL_WTurb.T5.fst"	400	-1.76900000e+02	1	4	4.65000000e+00	4.65000000e+00
4.50036387e+02	2.81680545e+02	0	"../5MW_Land_DLL_WTurb.T6.fst"	372	1.99750000e+02	1	4	4.65000000e+00	4.65000000e+00
1.00554456e+03	-4.37320615e+02	0	"../5MW_Land_DLL_WTurb.T7.fst"	928	-521	1	4	4.65000000e+00	4.65000000e+00
9.79176616e+02	-6.02414036e+01	0	"../5MW_Land_DLL_WTurb.T8.fst"	900	-1.39700000e+02	1	4	4.65000000e+00	4.65000000e+00
9.52808669e+02	3.16837807e+02	0	"../5MW_Land_DLL_WTurb.T9.fst"	876	2.36950000e+02	1	4	4.65000000e+00	4.65000000e+00
1.50831684e+03	-4.02163352e+02	0	"../5MW_Land_DLL_WTurb.T10.fst"	1432	-4.83800000e+02	1	4	4.65000000e+00	4.65000000e+00
1.48194890e+03	-2.50841409e+01	0	"../5MW_Land_DLL_WTurb.T11.fst"	1404	-1.07150000e+02	1	4	4.65000000e+00	4.65000000e+00
1.45558095e+03	3.51995070e+02	0	"../5MW_Land_DLL_WTurb.T12.fst"	1376	2.69500000e+02	1	4	4.65000000e+00	4.65000000e+00
2.01108913e+03	-3.67006089e+02	0	"../5MW_Land_DLL_WTurb.T13.fst"	1932	-4.46600000e+02	1	4	4.65000000e+00	4.65000000e+00
1.98472118e+03	1.00731219e+01	0	"../5MW_Land_DLL_WTurb.T14.fst"	1908	-6.99500000e+01	1	4	4.65000000e+00	4.65000000e+00
1.95835323e+03	3.87152333e+02	0	"../5MW_Land_DLL_WTurb.T15.fst"	1880	3.06700000e+02	1	4	4.65000000e+00	4.65000000e+00
2.51386141e+03	-3.31848826e+02	0	"../5MW_Land_DLL_WTurb.T16.fst"	2436	-4.14050000e+02	1	4	4.65000000e+00	4.65000000e+00
2.48749346e+03	4.52303847e+01	0	"../5MW_Land_DLL_WTurb.T17.fst"	2408	-3.74000000e+01	1	4	4.65000000e+00	4.65000000e+00
2.46112551e+03	4.22309596e+02	0	"../5MW_Land_DLL_WTurb.T18.fst"	2384	3.39250000e+02	1	4	4.65000000e+00	4.65000000e+00
--- WAKE DYNAMICS ---
1             Mod_Wake      - Switch between wake formulations {1:Polar, 2:Curl, 3:Cartesian} (-) (switch)
4.65          dr            - Radial increment of radial finite-difference grid (m) [>0.0]
42            NumRadii      - Number of radii in the radial finite-difference grid (-) [>=2]
101           NumPlanes     - Number of wake planes (-) [>=2]
DEFAULT       f_c           - Cutoff (corner) frequency of the low-pass time-filter for the wake advection, deflection, and meandering model (Hz) [>0.0] or DEFAULT [DEFAULT=0.0007]
DEFAULT       C_HWkDfl_O    - Calibrated parameter in the correction for wake deflection defining the horizontal offset at the rotor (m ) or DEFAULT [DEFAULT= 0.0 ]
DEFAULT       C_HWkDfl_OY   - Calibrated parameter in the correction for wake deflection defining the horizontal offset at the rotor scaled with yaw error (m/deg) or DEFAULT [DEFAULT= 0.3 ]
DEFAULT       C_HWkDfl_x    - Calibrated parameter in the correction for wake deflection defining the horizontal offset scaled with downstream distance (- ) or DEFAULT [DEFAULT= 0.0 ]
DEFAULT       C_HWkDfl_xY   - Calibrated parameter in the correction for wake deflection defining the horizontal offset scaled with downstream distance and yaw error (1/deg) or DEFAULT [DEFAULT=-0.004]
DEFAULT       C_NearWake    - Calibrated parameter for the near-wake correction (-) [>1.0 and <2.5] or DEFAULT [DEFAULT=1.8]
DEFAULT       k_vAmb        - Calibrated parameter for the influence of ambient turbulence in the eddy viscosity (-) [>=0.0] or DEFAULT [DEFAULT=0.05 ]
DEFAULT       k_vShr        - Calibrated parameter for the influence of the shear layer in the eddy viscosity (-) [>=0.0] or DEFAULT [DEFAULT=0.016]
DEFAULT       C_vAmb_DMin   - Calibrated parameter in the eddy viscosity filter function for ambient turbulence defining the transitional diameter fraction between the minimum and exponential regions (-) [>=0.0 ] or DEFAULT [DEFAULT= 0.0 ]
DEFAULT       C_vAmb_DMax   - Calibrated parameter in the eddy viscosity filter function for ambient turbulence defining the transitional diameter fraction between the exponential and maximum regions (-) [> C_vAmb_DMin ] or DEFAULT [DEFAULT= 1.0 ]
DEFAULT       C_vAmb_FMin   - Calibrated parameter in the eddy viscosity filter function for ambient turbulence defining the value in the minimum region (-) [>=0.0 and <=1.0] or DEFAULT [DEFAULT= 1.0 ]
DEFAULT       C_vAmb_Exp    - Calibrated parameter in the eddy viscosity filter function for ambient turbulence defining the exponent in the exponential region (-) [> 0.0 ] or DEFAULT [DEFAULT= 0.01]
DEFAULT       C_vShr_DMin   - Calibrated parameter in the eddy viscosity filter function for the shear layer defining the transitional diameter fraction between the minimum and exponential regions (-) [>=0.0 ] or DEFAULT [DEFAULT= 3.0 ]
DEFAULT       C_vShr_DMax   - Calibrated parameter in the eddy viscosity filter function for the shear layer defining the transitional diameter fraction between the exponential and maximum regions (-) [> C_vShr_DMin ] or DEFAULT [DEFAULT=25.0 ]
DEFAULT       C_vShr_FMin   - Calibrated parameter in the eddy viscosity filter function for the shear layer defining the value in the minimum region (-) [>=0.0 and <=1.0] or DEFAULT [DEFAULT= 0.2 ]
DEFAULT       C_vShr_Exp    - Calibrated parameter in the eddy viscosity filter function for the shear layer defining the exponent in the exponential region (-) [> 0.0 ] or DEFAULT [DEFAULT= 0.1 ]
DEFAULT       Mod_WakeDiam  - Wake diameter calculation model (-) (switch) {1: rotor diameter, 2: velocity based, 3: mass-flux based, 4: momentum-flux based} or DEFAULT [DEFAULT=1]
DEFAULT       C_WakeDiam    - Calibrated parameter for wake diameter calculation (-) [>0.0 and <0.99] or DEFAULT [DEFAULT=0.95] [unused for Mod_WakeDiam=1]
DEFAULT       Mod_Meander   - Spatial filter model for wake meandering (-) (switch) {1: uniform, 2: truncated jinc, 3: windowed jinc} or DEFAULT [DEFAULT=3]
DEFAULT       C_Meander     - Calibrated parameter for wake meandering (-) [>=1.0] or DEFAULT [DEFAULT=1.9]
--- CURLED-WAKE PARAMETERS [only used if Mod_Wake=2 or 3] ---
DEFAULT       Swirl         - Switch to include swirl velocities in wake (-) (switch) [DEFAULT=TRUE]
DEFAULT       k_VortexDecay - Vortex decay constant for curl (-) [DEFAULT=0]
DEFAULT       NumVortices   - The number of vortices in the curled wake model (-) [DEFAULT=100]
DEFAULT       sigma_D       - The width of the vortices in the curled wake model non-dimesionalized by rotor diameter (-) [DEFAULT=0.2]
DEFAULT       FilterInit    - Switch to filter the initial wake plane deficit and select the number of grid points for the filter {0: no filter, 1: filter of size 1} or DEFAULT [DEFAULT=1] (switch)
DEFAULT       k_vCurl       - Calibrated parameter for scaling the eddy viscosity in the curled-wake model (-) [>=0] or DEFAULT [DEFAULT=2.0 ]
DEFAULT       Mod_Projection - Switch to select how the wake plane velocity is projected in AWAE {1: keep all components, 2: project against plane normal} or DEFAULT [DEFAULT=1: if Mod_Wake is 1 or 3, or DEFAULT=2: if Mod_Wake is 2] (switch)
--- VISUALIZATION ---
False         WrDisWind     - Write low- and high-resolution disturbed wind data to <RootName>.Low.Dis.t<n>.vtk etc.? (flag)
1             NOutDisWindXY - Number of XY planes for output of disturbed wind data across the low-resolution domain to <RootName>.Low.DisXY<n_out>.t<n>.vtk (-) [0 to 9]
80.0          OutDisWindZ   - Z coordinates of XY planes for output of disturbed wind data across the low-resolution domain (m) [1 to NOutDisWindXY] [unused for NOutDisWindXY=0]
0             NOutDisWindYZ - Number of YZ planes for output of disturbed wind data across the low-resolution domain to <RootName>/Low.DisYZ<n_out>.t<n>.vtk (-) [0 to 9]
748.0, 1252.0, 1378.0, 1504.0, 1630.0, 1756.0, 1882.0, 2008.0 OutDisWindX   - X coordinates of YZ planes for output of disturbed wind data across the low-resolution domain (m) [1 to NOutDisWindYZ] [unused for NOutDisWindYZ=0]
0             NOutDisWindXZ - Number of XZ planes for output of disturbed wind data across the low-resolution domain to <RootName>/Low.DisXZ<n_out>.t<n>.vtk (-) [0 to 9]
0.0           OutDisWindY   - Y coordinates of XZ planes for output of disturbed wind data across the low-resolution domain (m) [1 to NOutDisWindXZ] [unused for NOutDisWindXZ=0]
666         WrDisDT       - Time step for disturbed wind visualization output (s) [>0.0] or DEFAULT [DEFAULT=DT_Low or DT_Low-VTK] [unused for WrDisWind=False and NOutDisWindXY=NOutDisWindYZ=NOutDisWindXZ=0]
--- OUTPUT ---
True          SumPrint      - Print summary data to <RootName>.sum? (flag)
99999.9       ChkptTime     - Amount of time between creating checkpoint files for potential restart (s) [>0.0]
0.0           TStart        - Time to begin tabular output (s) [>=0.0]
1             OutFileFmt    - Format for tabular (time-marching) output file (switch) {1: text file [<RootName>.out], 2: binary file [<RootName>.outb], 3: both}
True          TabDelim      - Use tab delimiters in text tabular output file? (flag) {uses spaces if False}
"ES10.3E2"    OutFmt        - Format used for text tabular output, excluding the time channel. Resulting field should be 10 characters. (quoted string)
DEFAULT       OutAllPlanes  - Output all wake planes at all time steps. [DEFAULT=False]
0             NOutRadii     - Number of radial nodes for wake output for an individual rotor (-) [0 to 20]
0, 1, 2, 3, 4, 5, 7, 9, 11, 13, 15, 16, 17, 18, 19, 21, 24, 28, 33, 39 OutRadii      - List of radial nodes for wake output for an individual rotor (-) [1 to NOutRadii] [unused for NOutRadii=0]
0             NOutDist      - Number of downstream distances for wake output for an individual rotor (-) [0 to 9 ]
252.0, 378.0, 504.0, 630.0, 756.0, 882.0, 1008.0 OutDist       - List of downstream distances for wake output for an individual rotor (m) [1 to NOutDist ] [unused for NOutDist =0]
0             NWindVel      - Number of points for wind output (-) [0 to 9]
0.0           WindVelX      - List of coordinates in the X direction for wind output (m) [1 to NWindVel] [unused for NWindVel=0]
0.0           WindVelY      - List of coordinates in the Y direction for wind output (m) [1 to NWindVel] [unused for NWindVel=0]
80.0          WindVelZ      - List of coordinates in the Z direction for wind output (m) [1 to NWindVel] [unused for NWindVel=0]
 OutList The next line(s) contains a list of output parameters.  See OutListParameters.xlsx for a listing of available output channels (quoted string)
"RtAxsXT1"
"RtAxsXT2"
"RtAxsXT3"
"RtAxsXT4"
"RtAxsXT5"
"RtAxsXT6"
"RtAxsXT7"
"RtAxsXT8"
"RtAxsXT9"
END
---------------------------------------------------------------------------------------