--------------TurbSim v2.00.* User Time Series Input File-----------------------
     Time series input from low-res turbsim run
--------------------------------------------------------------------------------
          3 nComp - Number of velocity components in the file
          1 nPoints - Number of time series points contained in this file (-)
          1 RefPtID - Index of the reference point (1-nPoints)
     Pointyi Pointzi ! nPoints listed in order of increasing height
       (m)     (m)
       4.30608   94.00000
--------Time Series-------------------------------------------------------------
Elapsed Time         Point01u             Point01v           Point01w
         (s)            (m/s)                (m/s)              (m/s)
	0.00			  10.34592			  -0.13129			 0.38166
	0.25			  10.31005			  -0.11345			 0.48066
	0.50			  10.14882			  0.00355			 0.47239
	0.75			  10.24763			  0.02306			 0.38290
	1.00			  10.20990			  -0.14197			 0.30489
	1.25			  10.11171			  -0.03526			 0.40028
	1.50			  10.20866			  -0.12081			 0.57627
	1.75			  10.18353			  -0.23321			 0.66078
	2.00			  10.39049			  -0.11566			 0.60301
	2.25			  10.39129			  -0.03177			 0.48657
	2.50			  10.39670			  0.15662			 0.53346
	2.75			  10.42778			  0.01294			 0.32644
	3.00			  10.32541			  0.11228			 0.09992
	3.25			  10.20937			  0.29993			 0.21885
	3.50			  10.25696			  0.39964			 0.24270
	3.75			  10.15530			  0.35070			 0.25131
	4.00			  10.06438			  0.28963			 0.27759
	4.25			  10.06598			  0.40976			 0.28045
	4.50			  10.20102			  0.25265			 0.37572
	4.75			  10.10043			  0.18108			 0.20856
	5.00			  10.06110			  0.08744			 0.15999
	5.25			  10.29718			  -0.06341			 0.04591
	5.50			  10.17696			  -0.10352			 -0.04936
	5.75			  10.27631			  0.20242			 0.18766
	6.00			  10.44172			  -0.01742			 0.21599
	6.25			  10.47652			  0.14779			 0.29049
	6.50			  10.42778			  0.22119			 0.22774
	6.75			  10.39342			  0.07622			 0.11814
	7.00			  10.20342			  0.02434			 0.16490
	7.25			  10.14962			  -0.16331			 0.14127
	7.50			  10.12955			  -0.09542			 0.14815
	7.75			  9.99700			  -0.01779			 0.16826
	8.00			  9.95562			  -0.05053			 0.17439
	8.25			  9.85130			  -0.12633			 0.22404
	8.50			  9.98439			  0.05543			 0.17318
	8.75			  9.95092			  0.05304			 0.23689
	9.00			  10.02931			  -0.00785			 -0.01034
	9.25			  9.91016			  0.02158			 0.14836
	9.50			  9.96264			  0.02655			 0.16543
	9.75			  9.94887			  -0.01080			 0.05999
	10.00			  9.88912			  -0.07666			 0.05673
	10.25			  9.97214			  0.02489			 0.03966
	10.50			  9.74396			  0.05120			 0.09697
	10.75			  9.79297			  -0.06819			 -0.04945
	11.00			  9.89827			  0.21917			 0.02032
	11.25			  9.84100			  0.13804			 0.15197
	11.50			  9.92712			  0.23995			 0.09973
	11.75			  9.79253			  0.22597			 0.05446
	12.00			  9.69007			  0.17906			 -0.13453
	12.25			  9.61886			  0.42098			 0.10088
	12.50			  9.91558			  0.51260			 0.06080
	12.75			  9.90928			  0.45483			 0.18182
	13.00			  9.79004			  0.35677			 0.12542
	13.25			  9.70720			  0.24492			 0.16985
	13.50			  9.94257			  0.26497			 0.24034
	13.75			  9.91860			  0.21990			 0.26935
	14.00			  9.86222			  0.30674			 0.13779
	14.25			  9.89454			  0.42999			 -0.09134
	14.50			  9.88824			  0.35935			 -0.20097
	14.75			  9.86719			  0.16563			 -0.24988
	15.00			  9.79253			  0.14981			 -0.15940
	15.25			  9.77077			  -0.01392			 -0.03260
	15.50			  9.66299			  -0.03471			 -0.18462
	15.75			  9.53390			  0.18642			 -0.30352
	16.00			  9.66912			  0.19415			 -0.14886
	16.25			  9.38669			  0.21052			 -0.10502
	16.50			  9.49625			  0.27362			 -0.03692
	16.75			  9.38767			  0.24419			 0.03851
	17.00			  9.50096			  0.50248			 0.07427
	17.25			  9.64426			  0.37462			 -0.07846
	17.50			  9.69122			  0.39817			 -0.05095
	17.75			  9.71741			  0.46237			 -0.02187
	18.00			  9.74245			  0.24106			 -0.07517
	18.25			  9.65598			  0.49714			 -0.13991
	18.50			  9.68332			  0.35604			 -0.14103
	18.75			  9.64985			  0.21696			 -0.07281
	19.00			  9.78098			  0.09830			 -0.00906
	19.25			  9.99291			  0.08928			 0.05026
	19.50			  10.08880			  -0.04078			 0.02815
	19.75			  10.07495			  -0.05771			 0.07545
	20.00			  9.99558			  -0.02551			 -0.03201
	20.25			  9.88921			  0.09149			 -0.05365
	20.50			  9.92251			  0.16490			 -0.10859
	20.75			  10.00152			  0.02729			 -0.13142
	21.00			  10.01369			  0.15312			 -0.04899
	21.25			  9.97169			  0.22781			 -0.05903
	21.50			  9.98332			  0.08450			 -0.04964
	21.75			  9.93103			  0.09959			 -0.02635
	22.00			  10.07699			  0.10087			 -0.07421
	22.25			  10.16125			  0.26240			 0.04790
	22.50			  10.24346			  0.20684			 0.01438
	22.75			  10.17954			  0.00742			 -0.28057
	23.00			  10.00570			  0.04090			 -0.22134
	23.25			  9.94461			  0.10897			 -0.01447
	23.50			  9.88131			  -0.00546			 -0.08039
	23.75			  9.83390			  0.12295			 -0.12392
	24.00			  9.79910			  -0.09487			 -0.04336
	24.25			  9.88966			  -0.23542			 -0.02085
	24.50			  9.93458			  -0.20525			 -0.16764
	24.75			  9.91931			  -0.17508			 -0.03136
	25.00			  9.89063			  -0.17968			 -0.10098
	25.25			  9.93618			  -0.24388			 0.10020
	25.50			  9.91478			  -0.15337			 0.33639
	25.75			  9.82191			  -0.15484			 0.20557
	26.00			  9.77770			  -0.07942			 0.22753
	26.25			  9.82271			  -0.02110			 0.16425
	26.50			  9.75488			  -0.05348			 0.15455
	26.75			  9.78409			  -0.02588			 0.40737
	27.00			  9.80939			  -0.04538			 0.39923
	27.25			  9.78427			  -0.03379			 0.17545
	27.50			  9.85308			  0.00263			 0.22283
	27.75			  9.96423			  -0.09800			 0.23763
	28.00			  9.96654			  -0.11271			 0.21848
	28.25			  9.94009			  -0.05219			 0.25962
	28.50			  9.91070			  -0.21776			 0.12262
	28.75			  9.81561			  -0.21445			 -0.03204
	29.00			  9.70738			  -0.18685			 -0.07128
	29.25			  9.86382			  -0.16183			 -0.13829
	29.50			  9.84944			  -0.04888			 -0.06985
	29.75			  9.86284			  0.00852			 -0.19084
	30.00			  9.92837			  0.15790			 -0.09700
	30.25			  9.88220			  0.16986			 0.10216
	30.50			  10.03997			  -0.04373			 0.01320
	30.75			  10.21088			  0.12608			 0.07874
	31.00			  10.09501			  0.18237			 0.15240
	31.25			  10.04583			  0.43459			 0.05175
	31.50			  10.04636			  0.38032			 0.15439
	31.75			  9.92331			  0.27730			 -0.00281
	32.00			  9.97746			  0.25614			 -0.02082
	32.25			  9.77228			  0.26645			 0.09230
	32.50			  9.74503			  0.47911			 0.00714
	32.75			  9.69424			  0.39706			 -0.02927
	33.00			  9.77601			  0.21659			 0.11780
	33.25			  9.92854			  0.03281			 0.00378
	33.50			  9.91691			  -0.05771			 0.14174
	33.75			  9.91878			  0.01625			 0.31490
	34.00			  9.97951			  -0.00233			 0.30184
	34.25			  10.15121			  -0.17434			 0.22849
	34.50			  10.25616			  -0.05808			 0.30890
	34.75			  10.30463			  0.00227			 0.13692
	35.00			  10.15503			  -0.20359			 -0.09364
	35.25			  10.13390			  -0.21040			 0.00947
	35.50			  10.09084			  -0.10664			 0.25150
	35.75			  9.96832			  -0.17894			 0.05620
	36.00			  10.06705			  -0.16754			 -0.04715
	36.25			  10.06687			  -0.13093			 -0.14734
	36.50			  9.97178			  -0.12927			 -0.12921
	36.75			  9.95527			  -0.11915			 0.01102
	37.00			  9.93751			  -0.09928			 -0.04734
	37.25			  9.88273			  -0.17250			 0.06823
	37.50			  9.76403			  -0.23947			 0.07057
	37.75			  9.79102			  -0.48893			 0.05524
	38.00			  9.91008			  -0.44202			 -0.13108
	38.25			  10.03269			  -0.38848			 -0.05825
	38.50			  9.98448			  -0.21868			 -0.14127
	38.75			  9.98492			  -0.36659			 -0.17535
	39.00			  10.08463			  -0.38664			 -0.15359
	39.25			  9.95047			  -0.28417			 -0.16963
	39.50			  9.84677			  -0.51818			 -0.05421
	39.75			  9.88113			  -0.52076			 0.03142
	40.00			  9.96610			  -0.47403			 -0.03885
	40.25			  9.88362			  -0.53382			 0.10045
	40.50			  9.80851			  -0.35555			 0.05004
	40.75			  9.88122			  -0.31471			 -0.19410
	41.00			  9.76491			  -0.15282			 -0.30688
	41.25			  9.79546			  -0.04520			 -0.20486
	41.50			  9.69904			  0.05580			 -0.41580
	41.75			  9.77859			  -0.11345			 -0.26636
	42.00			  9.90981			  -0.25419			 -0.14777
	42.25			  9.88167			  -0.32189			 -0.04479
	42.50			  9.92020			  -0.35997			 -0.00480
	42.75			  9.97072			  -0.34028			 -0.01693
	43.00			  9.99167			  -0.31526			 0.10129
	43.25			  10.08267			  -0.21151			 -0.00067
	43.50			  10.02789			  -0.16018			 -0.12535
	43.75			  10.02345			  -0.19973			 0.00527
	44.00			  10.21949			  -0.09855			 0.01049
	44.25			  10.09856			  0.02563			 -0.05732
	44.50			  10.16107			  -0.04759			 0.01186
	44.75			  10.13878			  -0.17545			 0.15716
	45.00			  9.96956			  -0.10223			 0.13198
	45.25			  9.97320			  -0.23027			 0.21879
	45.50			  10.00419			  -0.25492			 0.20156
	45.75			  9.82671			  -0.11989			 0.15309
	46.00			  9.71333			  0.00631			 0.11945
	46.25			  9.72745			  -0.00914			 0.04861
	46.50			  9.80629			  -0.15245			 0.10890
	46.75			  9.82200			  -0.30128			 -0.03425
	47.00			  9.84411			  -0.13608			 -0.01892
	47.25			  10.18699			  -0.11805			 0.13154
	47.50			  10.19099			  -0.17158			 0.06684
	47.75			  10.15121			  0.00668			 -0.01709
	48.00			  10.27613			  -0.06764			 -0.14348
	48.25			  10.30881			  -0.19090			 -0.15797
	48.50			  10.27347			  -0.27258			 -0.05928
	48.75			  10.36367			  -0.26394			 -0.13334
	49.00			  10.22402			  -0.24720			 -0.10309
	49.25			  10.04370			  -0.16478			 0.06475
	49.50			  10.10007			  -0.25143			 0.12153
	49.75			  10.21833			  -0.25216			 0.24805
	50.00			  10.04920			  -0.39750			 0.41138
	50.25			  9.84384			  -0.40228			 0.13477
	50.50			  9.82262			  -0.39069			 0.15940
	50.75			  9.88513			  -0.33237			 0.14755
	51.00			  9.92180			  -0.42215			 0.27463
	51.25			  9.84890			  -0.30349			 0.34139
	51.50			  9.96628			  -0.32667			 0.14678
	51.75			  9.98732			  -0.29116			 0.12517
	52.00			  9.97587			  -0.39216			 0.01569
	52.25			  9.84384			  -0.50291			 -0.09566
	52.50			  9.72691			  -0.44938			 -0.12846
	52.75			  9.72265			  -0.58533			 -0.14721
	53.00			  9.90422			  -0.43116			 -0.01009
	53.25			  9.94435			  -0.30993			 -0.07340
	53.50			  9.86284			  -0.51800			 -0.10915
	53.75			  9.92384			  -0.38996			 -0.14295
	54.00			  10.06749			  -0.41718			 -0.09112
	54.25			  10.08596			  -0.66996			 0.19040
	54.50			  9.93041			  -0.33366			 0.06202
	54.75			  9.77832			  -0.22383			 -0.02458
	55.00			  9.81082			  -0.22549			 0.05362
	55.25			  9.84882			  -0.18906			 0.04227
	55.50			  9.85823			  -0.26320			 -0.07088
	55.75			  9.87696			  -0.26725			 -0.00623
	56.00			  9.85467			  -0.39915			 -0.05154
	56.25			  9.91975			  -0.37965			 0.06575
	56.50			  9.92091			  -0.30349			 0.16033
	56.75			  9.98670			  -0.33127			 0.10365
	57.00			  9.88193			  -0.01963			 0.06752
	57.25			  9.75462			  -0.03361			 0.20004
	57.50			  9.66450			  -0.10315			 0.00281
	57.75			  9.77850			  -0.37082			 0.12700
	58.00			  9.76944			  -0.35298			 -0.11932
	58.25			  9.80167			  -0.31913			 -0.18683
	58.50			  9.61221			  -0.26706			 -0.08599
	58.75			  9.45239			  -0.39308			 0.03876
	59.00			  9.42141			  -0.30809			 -0.03015
	59.25			  9.48196			  -0.36457			 0.01848
	59.50			  9.60182			  -0.14454			 0.08151
	59.75			  9.55743			  -0.18373			 -0.04093
	60.00			  9.60057			  -0.13295			 -0.06021
	60.25			  9.52608			  -0.15429			 -0.05107
	60.50			  9.46758			  -0.03195			 -0.09846
	60.75			  9.40560			  0.06831			 -0.17759
	61.00			  9.45186			  0.04991			 0.00437
	61.25			  9.48507			  0.03832			 0.09557
	61.50			  9.51543			  0.09296			 0.03238
	61.75			  9.62028			  0.01772			 0.08944
	62.00			  9.51703			  0.19654			 0.02222
	62.25			  9.57243			  0.02287			 -0.08571
	62.50			  9.65891			  0.05617			 -0.12675
	62.75			  9.72780			  -0.24572			 -0.02567
	63.00			  9.77930			  -0.30294			 -0.16344
	63.25			  9.70694			  -0.23597			 -0.03649
	63.50			  9.92774			  -0.33219			 -0.03677
	63.75			  10.15681			  -0.22843			 -0.08182
	64.00			  10.23787			  -0.23303			 -0.09438
	64.25			  10.04041			  -0.37469			 0.01423
	64.50			  9.90910			  -0.31195			 -0.16506
	64.75			  9.85663			  -0.09193			 -0.31813
	65.00			  9.85405			  -0.16735			 -0.42404
	65.25			  9.93334			  -0.30423			 -0.31260
	65.50			  9.88033			  -0.24775			 -0.19516
	65.75			  9.85086			  -0.18943			 -0.11198
	66.00			  9.78169			  -0.24462			 -0.07912
	66.25			  9.78365			  -0.23726			 -0.10698
	66.50			  9.85006			  -0.26762			 -0.00934
	66.75			  9.81987			  -0.24738			 0.05023
	67.00			  9.95846			  -0.10554			 0.06509
	67.25			  10.02496			  -0.13957			 0.12392
	67.50			  9.92375			  -0.11842			 -0.14463
	67.75			  10.00277			  0.20077			 0.01136
	68.00			  10.07530			  0.38492			 0.09358
	68.25			  10.06483			  0.16931			 -0.22305
	68.50			  10.23201			  0.38419			 -0.16279
	68.75			  10.12618			  0.47396			 -0.25240
	69.00			  10.13932			  0.54203			 -0.16214
	69.25			  9.97089			  0.27362			 -0.03192
	69.50			  9.98261			  0.32292			 -0.20750
	69.75			  9.98465			  0.51352			 -0.06217
	70.00			  9.96796			  0.40038			 0.01090
	70.25			  10.12085			  0.36947			 0.17206
	70.50			  9.94586			  0.47893			 0.00620
	70.75			  9.94905			  0.40295			 0.05319
	71.00			  9.90599			  0.24970			 0.08761
	71.25			  9.90040			  0.36984			 0.19590
	71.50			  10.02523			  0.40313			 -0.02234
	71.75			  10.09777			  0.41307			 -0.00701
	72.00			  10.08534			  0.37554			 -0.06684
	72.25			  10.03633			  0.49549			 -0.20001
	72.50			  10.10602			  0.56650			 -0.21254
	72.75			  10.03695			  0.54387			 -0.12377
	73.00			  10.04938			  0.55086			 -0.15505
	73.25			  10.24399			  0.70871			 -0.37305
	73.50			  10.22055			  0.57128			 -0.42370
	73.75			  10.15530			  0.38897			 -0.28175
	74.00			  10.12493			  0.13454			 -0.26204
	74.25			  10.01404			  0.15993			 -0.20673
	74.50			  9.98972			  0.28521			 -0.16941
	74.75			  9.88735			  0.26773			 -0.04333
	75.00			  9.75364			  0.12258			 0.11229
	75.25			  9.98199			  0.04476			 0.05676
	75.50			  10.04716			  -0.01355			 0.18424
	75.75			  10.10469			  0.05562			 0.10405
	76.00			  10.07664			  0.05856			 -0.03139
	76.25			  10.12120			  0.00631			 -0.09476
	76.50			  10.09954			  0.00907			 -0.08733
	76.75			  9.92952			  0.08947			 0.01239
	77.00			  9.98323			  0.10603			 0.01140
	77.25			  10.16586			  0.15275			 -0.19199
	77.50			  10.09040			  0.29220			 -0.22258
	77.75			  9.99016			  0.39743			 -0.13966
	78.00			  10.04015			  0.31225			 -0.22156
	78.25			  9.84446			  0.29386			 -0.14227
	78.50			  9.70570			  0.29901			 0.11133
	78.75			  9.83603			  0.28429			 -0.11761
	79.00			  9.61975			  0.15386			 -0.32852
	79.25			  9.62694			  -0.12762			 -0.39046
	79.50			  9.66548			  -0.20930			 -0.30004
	79.75			  9.75417			  -0.04538			 -0.29687
	80.00			  9.74698			  0.02986			 -0.19233
	80.25			  9.74911			  -0.03600			 -0.08257
	80.50			  9.72718			  -0.26982			 -0.00415
	80.75			  9.83683			  -0.34341			 -0.11024
	81.00			  9.89605			  -0.34047			 0.08785
	81.25			  9.92597			  -0.34911			 0.06668
	81.50			  9.85769			  -0.44459			 0.08179
	81.75			  9.96770			  -0.56307			 0.22308
	82.00			  9.91904			  -0.45839			 0.18086
	82.25			  9.98510			  -0.51101			 0.01724
	82.50			  9.87385			  -0.54541			 0.02931
	82.75			  10.01076			  -0.47182			 0.29836
	83.00			  10.07992			  -0.38112			 0.19485
	83.25			  10.08853			  -0.42804			 0.14227
	83.50			  10.18726			  -0.34268			 0.06158
	83.75			  10.02283			  -0.04612			 0.15281
	84.00			  10.00019			  -0.02570			 -0.06475
	84.25			  10.23263			  -0.08328			 -0.18300
	84.50			  10.20963			  -0.13902			 -0.13645
	84.75			  10.19072			  0.10694			 -0.15866
	85.00			  10.22269			  -0.05495			 -0.15222
	85.25			  10.19916			  0.04035			 -0.03207
	85.50			  10.14163			  0.15055			 0.03826
	85.75			  10.33660			  0.04127			 0.15091
	86.00			  10.22313			  -0.07077			 0.21456
	86.25			  10.36518			  0.01367			 0.08157
	86.50			  10.33109			  0.08413			 0.00567
	86.75			  10.28066			  0.18421			 0.05748
	87.00			  10.22029			  0.01864			 0.11018
	87.25			  10.08711			  0.12939			 0.07946
	87.50			  10.08187			  0.14631			 0.10234
	87.75			  10.21833			  -0.03306			 0.20231
	88.00			  10.42192			  -0.11621			 0.52674
	88.25			  10.29531			  -0.24296			 0.55811
	88.50			  10.25083			  -0.43926			 0.34450
	88.75			  10.16897			  -0.28748			 0.26419
	89.00			  10.21150			  -0.27222			 0.17831
	89.25			  10.18602			  -0.40688			 0.34301
	89.50			  10.00623			  -0.40118			 0.28300
	89.75			  10.02008			  -0.45784			 0.36608
	90.00			  10.03659			  -0.59103			 0.38878
	90.25			  10.09794			  -0.56601			 0.32687
	90.50			  10.12973			  -0.36310			 0.30952
	90.75			  10.12600			  -0.28840			 0.24488
	91.00			  10.26779			  -0.28675			 0.21857
	91.25			  10.16755			  -0.32649			 0.06712
	91.50			  10.28217			  -0.37303			 0.08972
	91.75			  10.32630			  -0.53842			 0.21627
	92.00			  10.34103			  -0.60391			 0.22622
	92.25			  10.44926			  -0.54798			 0.14780
	92.50			  10.38347			  -0.59858			 0.15809
	92.75			  10.32088			  -0.54375			 0.06680
	93.00			  10.17510			  -0.52113			 0.07125
	93.25			  10.21860			  -0.51726			 0.18941
	93.50			  10.17590			  -0.51726			 0.22283
	93.75			  10.25580			  -0.66885			 0.50923
	94.00			  10.12112			  -0.36733			 0.26841
	94.25			  10.20697			  -0.43981			 0.29183
	94.50			  10.29860			  -0.32207			 0.32644
	94.75			  10.18753			  -0.49132			 0.21947
	95.00			  10.27684			  -0.44735			 0.15841
	95.25			  10.33269			  -0.47109			 0.20533
	95.50			  10.39599			  -0.52499			 0.01258
	95.75			  10.23352			  -0.40633			 -0.02669
	96.00			  10.00374			  -0.56123			 -0.07228
	96.25			  9.98119			  -0.58919			 0.13739
	96.50			  9.93138			  -0.65781			 0.12996
	96.75			  10.02594			  -0.66223			 0.12921
	97.00			  10.09137			  -0.69884			 0.17613
	97.25			  10.10167			  -0.61201			 0.33946
	97.50			  10.16098			  -0.59103			 0.09846
	97.75			  10.13239			  -0.48985			 0.01581
	98.00			  10.16702			  -0.30570			 0.02107
	98.25			  10.29238			  -0.30073			 0.13558
	98.50			  10.17883			  -0.28031			 0.15645
	98.75			  10.18460			  -0.41755			 -0.04118
	99.00			  10.10212			  -0.59159			 0.00953
	99.25			  10.07193			  -0.48415			 -0.08596
	99.50			  10.10434			  -0.38830			 -0.01385
	99.75			  10.02479			  -0.43576			 -0.14183
	100.00			  10.13878			  -0.32667			 -0.08910
	100.25			  10.07282			  -0.39216			 -0.02427
	100.50			  10.11623			  -0.33881			 0.07560
	100.75			  10.12076			  -0.20359			 0.14106
	101.00			  10.02283			  -0.16496			 -0.07134
	101.25			  9.81268			  -0.11805			 -0.03969
	101.50			  9.85379			  -0.17011			 -0.08105
	101.75			  9.85743			  -0.30717			 -0.10402
	102.00			  9.89871			  -0.35850			 -0.28729
	102.25			  9.80487			  -0.38738			 -0.17510
	102.50			  9.94115			  -0.38370			 -0.22759
	102.75			  9.93636			  -0.43245			 -0.22681
	103.00			  9.97063			  -0.35243			 -0.09187
	103.25			  10.10522			  -0.29190			 -0.01395
	103.50			  10.19276			  -0.41369			 -0.00521
	103.75			  10.40975			  -0.19090			 -0.12784
	104.00			  10.47599			  -0.26946			 0.01796
	104.25			  10.41970			  -0.22218			 0.08042
	104.50			  10.56246			  -0.21335			 0.12389
	104.75			  10.53858			  -0.19200			 0.14292
	105.00			  10.44314			  -0.16331			 0.20657
	105.25			  10.40079			  -0.15245			 0.13549
	105.50			  10.33411			  0.06886			 0.09712
	105.75			  10.52064			  0.10216			 -0.00804
	106.00			  10.47767			  0.04256			 -0.01954
	106.25			  10.43328			  0.13767			 0.04750
	106.50			  10.40975			  0.04789			 0.18014
	106.75			  10.35888			  -0.09413			 0.13947
	107.00			  10.42795			  -0.09045			 0.13198
	107.25			  10.46080			  -0.09340			 0.08319
	107.50			  10.43967			  -0.20856			 0.03133
	107.75			  10.67557			  -0.16312			 -0.05085
	108.00			  10.63180			  -0.10296			 0.10138
	108.25			  10.67531			  0.02030			 -0.19538
	108.50			  10.58102			  0.15993			 -0.12865
	108.75			  10.42787			  0.05507			 -0.14796
	109.00			  10.28111			  0.02158			 -0.23909
	109.25			  10.23494			  -0.23045			 -0.41269
	109.50			  10.22712			  -0.14748			 -0.22355
	109.75			  10.31591			  0.04384			 -0.16550
	110.00			  10.36767			  0.07199			 0.04690
	110.25			  10.49543			  -0.09285			 0.18030
	110.50			  10.39750			  -0.08254			 0.01080
	110.75			  10.39688			  -0.09045			 -0.03668
	111.00			  10.45104			  -0.24002			 -0.11453
	111.25			  10.60304			  -0.31214			 -0.13251
	111.50			  10.74616			  -0.32281			 -0.15722
	111.75			  10.80413			  -0.30735			 -0.11811
	112.00			  10.79073			  -0.31950			 -0.06777
	112.25			  10.65755			  -0.47624			 -0.23070
	112.50			  10.54835			  -0.57705			 -0.18132
	112.75			  10.45095			  -0.51450			 -0.16528
	113.00			  10.68534			  -0.37892			 -0.16571
	113.25			  10.67753			  -0.51689			 -0.26652
	113.50			  10.68010			  -0.37193			 -0.31555
	113.75			  10.54488			  -0.29723			 -0.12137
	114.00			  10.75095			  -0.43282			 0.00965
	114.25			  10.67486			  -0.60759			 0.17669
	114.50			  10.65054			  -0.39823			 0.18142
	114.75			  10.60463			  -0.29356			 -0.00913
	115.00			  10.63660			  -0.13497			 -0.07679
	115.25			  10.67797			  -0.19164			 -0.16341
	115.50			  10.50910			  -0.24260			 -0.15576
	115.75			  10.59087			  -0.45729			 -0.17283
	116.00			  10.52872			  -0.45526			 -0.31235
	116.25			  10.44189			  -0.32354			 -0.51039
	116.50			  10.32425			  -0.47053			 -0.25921
	116.75			  10.36589			  -0.64383			 -0.38682
	117.00			  10.50644			  -0.46722			 -0.11587
	117.25			  10.44083			  -0.48415			 -0.06976
	117.50			  10.39999			  -0.46704			 -0.09619
	117.75			  10.35009			  -0.46207			 0.06973
	118.00			  10.32940			  -0.44515			 -0.06195
	118.25			  10.37175			  -0.37726			 -0.09336
	118.50			  10.30330			  -0.42344			 -0.00238
	118.75			  10.32363			  -0.56289			 0.21540
	119.00			  10.37451			  -0.48856			 0.26633
	119.25			  10.21798			  -0.52738			 0.16792
	119.50			  10.15903			  -0.60299			 0.03189
	119.75			  10.02834			  -0.38867			 -0.10138
	120.00			  9.87066			  -0.43429			 0.13098
	120.25			  9.94568			  -0.57227			 0.22078
	120.50			  10.01617			  -0.67658			 0.07511
	120.75			  9.96042			  -0.47035			 0.02100
	121.00			  10.04831			  -0.51321			 -0.07004
	121.25			  10.08729			  -0.60704			 0.00878
	121.50			  10.06722			  -0.43540			 -0.00521
	121.75			  10.12698			  -0.25382			 0.04305
	122.00			  10.14029			  -0.34599			 0.12451
	122.25			  10.10700			  -0.39455			 0.15029
	122.50			  10.05479			  -0.33789			 0.18533
	122.75			  10.13621			  -0.21187			 0.18169
	123.00			  10.16977			  -0.11897			 0.26173
	123.25			  10.13248			  -0.01871			 0.16092
	123.50			  10.16498			  -0.00730			 0.12946
	123.75			  10.23645			  -0.18630			 0.21360
	124.00			  10.21079			  -0.17232			 0.24475
	124.25			  10.16897			  -0.24499			 0.24444
	124.50			  10.18833			  -0.16588			 0.36297
	124.75			  10.20404			  -0.16423			 0.36580
	125.00			  10.22783			  -0.26412			 0.19351
	125.25			  10.32212			  -0.12357			 0.06901
	125.50			  10.23671			  -0.18759			 0.25200
	125.75			  10.29664			  -0.12633			 0.19345
	126.00			  10.22366			  -0.12210			 0.14616
	126.25			  10.28404			  -0.02790			 0.12570
	126.50			  10.30898			  -0.11731			 0.20940
	126.75			  10.32159			  -0.23671			 0.24031
	127.00			  10.21469			  -0.26081			 0.23850
	127.25			  10.18442			  -0.26522			 0.10803
	127.50			  10.11419			  -0.28399			 0.03898
	127.75			  10.11925			  -0.31894			 0.04476
	128.00			  10.09919			  -0.48470			 -0.08161
	128.25			  10.26894			  -0.55295			 -0.05872
	128.50			  10.37477			  -0.58699			 -0.10878
	128.75			  10.25429			  -0.55203			 -0.00403
	129.00			  10.21487			  -0.75587			 0.06236
	129.25			  10.32612			  -0.72883			 -0.00054
	129.50			  10.36936			  -0.82743			 0.08879
	129.75			  10.50928			  -0.85540			 -0.00300
	130.00			  10.62736			  -0.83148			 0.05567
	130.25			  10.63393			  -0.92347			 0.02330
	130.50			  10.53529			  -0.85889			 0.18459
	130.75			  10.51008			  -0.70785			 0.09466
	131.00			  10.54311			  -0.75403			 0.07971
	131.25			  10.48389			  -0.61752			 0.15635
	131.50			  10.40682			  -0.69461			 0.08030
	131.75			  10.33517			  -0.82854			 -0.03612
	132.00			  10.36962			  -0.98565			 0.01295
	132.25			  10.19055			  -1.18102			 0.13272
	132.50			  10.27072			  -0.81621			 0.22613
	132.75			  10.24346			  -0.89385			 0.24090
	133.00			  10.44864			  -0.79248			 0.20772
	133.25			  10.35080			  -0.87159			 0.13847
	133.50			  10.33802			  -0.91813			 0.03422
	133.75			  10.24692			  -0.97350			 0.16674
	134.00			  10.23760			  -0.84822			 0.09681
	134.25			  10.21034			  -0.62599			 0.12392
	134.50			  10.20280			  -0.40651			 0.19942
	134.75			  10.22783			  -0.37818			 0.03767
	135.00			  10.25900			  -0.63979			 -0.08363
	135.25			  10.17332			  -0.59986			 -0.12246
	135.50			  10.29167			  -0.60336			 -0.03251
	135.75			  10.29345			  -0.45122			 -0.00182
	136.00			  10.32115			  -0.47403			 0.04768
	136.25			  10.33340			  -0.43411			 0.07206
	136.50			  10.41766			  -0.49298			 -0.01112
	136.75			  10.41872			  -0.36678			 0.10166
	137.00			  10.29061			  -0.43816			 0.08714
	137.25			  10.28430			  -0.47182			 -0.16854
	137.50			  10.40309			  -0.53272			 -0.14339
	137.75			  10.43319			  -0.69222			 0.03711
	138.00			  10.50724			  -0.71852			 0.01335
	138.25			  10.29931			  -0.53621			 -0.19535
	138.50			  10.34228			  -0.52057			 -0.23325
	138.75			  10.60987			  -0.36935			 -0.18512
	139.00			  10.50289			  -0.32906			 -0.06945
	139.25			  10.54550			  -0.36420			 -0.23247
	139.50			  10.64397			  -0.36953			 -0.07302
	139.75			  10.59647			  -0.44496			 0.04317
	140.00			  10.42458			  -0.45158			 0.04902
	140.25			  10.53698			  -0.36383			 0.00051
	140.50			  10.63109			  -0.20378			 -0.11680
	140.75			  10.49090			  -0.01447			 -0.13471
	141.00			  10.46702			  0.04072			 -0.12361
	141.25			  10.43310			  0.01404			 -0.08039
	141.50			  10.56442			  -0.25971			 -0.02318
	141.75			  10.51532			  -0.19495			 -0.23707
	142.00			  10.74571			  -0.09800			 -0.27843
	142.25			  10.60472			  -0.09928			 -0.29736
	142.50			  10.75504			  -0.11787			 -0.16239
	142.75			  10.59096			  -0.12302			 -0.01363
	143.00			  10.57969			  -0.19808			 0.14945
	143.25			  10.63482			  -0.23413			 0.13257
	143.50			  10.71251			  -0.37009			 -0.07560
	143.75			  10.66989			  -0.45158			 -0.03618
	144.00			  10.58865			  -0.22953			 0.04131
	144.25			  10.55039			  -0.29705			 0.21080
	144.50			  10.65489			  -0.24352			 0.24071
	144.75			  10.72174			  -0.36181			 0.34506
	145.00			  10.82136			  -0.33771			 0.44496
	145.25			  10.60082			  -0.48433			 0.18714
	145.50			  10.55625			  -0.40247			 0.42684
	145.75			  10.59815			  -0.08696			 0.36919
	146.00			  10.59611			  -0.03122			 0.19025
	146.25			  10.52579			  -0.23965			 0.12529
	146.50			  10.51212			  -0.19366			 0.31101
	146.75			  10.56850			  -0.30055			 0.12371
	147.00			  10.66900			  -0.25198			 0.08428
	147.25			  10.67273			  -0.26136			 0.10381
	147.50			  10.39271			  -0.27442			 0.12681
	147.75			  10.35622			  -0.30441			 0.23151
	148.00			  10.31404			  -0.42160			 0.15178
	148.25			  10.24177			  -0.32612			 0.07772
	148.50			  10.01120			  -0.20010			 0.22812
	148.75			  10.05284			  0.01514			 0.08978
	149.00			  10.22872			  -0.02055			 -0.07635
	149.25			  10.35320			  0.11559			 0.08586
	149.50			  10.38596			  0.07457			 0.03158
	149.75			  10.50466			  0.24235			 -0.02778
	150.00			  10.46151			  0.16637			 -0.09149
	150.25			  10.46267			  0.17980			 -0.03969
	150.50			  10.56175			  -0.14914			 -0.11189
	150.75			  10.64494			  -0.04520			 0.04759
	151.00			  10.61280			  -0.28638			 0.12311
	151.25			  10.51709			  -0.11934			 0.09162
	151.50			  10.52544			  0.10713			 -0.05707
	151.75			  10.57249			  0.13785			 -0.25601
	152.00			  10.57809			  0.15662			 -0.01659
	152.25			  10.57392			  0.26369			 0.03307
	152.50			  10.52189			  0.15698			 -0.12430
	152.75			  10.51052			  0.04826			 -0.13714
	153.00			  10.29203			  -0.08769			 0.04551
	153.25			  10.25447			  -0.22181			 -0.09348
	153.50			  10.25474			  -0.26982			 -0.06124
	153.75			  10.22757			  -0.19587			 -0.09392
	154.00			  10.41606			  -0.29889			 -0.04134
	154.25			  10.37388			  -0.44128			 -0.07389
	154.50			  10.43009			  -0.46483			 0.05437
	154.75			  10.54755			  -0.40247			 0.07710
	155.00			  10.45628			  -0.15687			 0.01556
	155.25			  10.45388			  -0.24388			 -0.02903
	155.50			  10.62284			  -0.27424			 0.10405
	155.75			  10.65151			  -0.30220			 0.14703
	156.00			  10.67406			  -0.40854			 -0.00409
	156.25			  10.61218			  -0.23119			 -0.04591
	156.50			  10.67291			  -0.20396			 -0.09112
	156.75			  10.67779			  -0.26081			 0.06388
	157.00			  10.81754			  -0.35243			 0.05179
	157.25			  10.76161			  -0.17949			 -0.00300
	157.50			  10.78318			  -0.24517			 -0.06426
	157.75			  11.01340			  -0.06764			 0.03064
	158.00			  11.03728			  0.06702			 -0.15486
	158.25			  11.10795			  -0.02680			 -0.21102
	158.50			  11.16584			  0.02747			 -0.19049
	158.75			  11.07661			  0.07604			 -0.10651
	159.00			  11.16824			  0.17906			 -0.05247
	159.25			  11.00931			  0.11394			 0.02358
	159.50			  10.89505			  0.17612			 0.15377
	159.75			  10.90313			  0.26497			 0.10620
	160.00			  11.12793			  0.25504			 0.04470
	160.25			  11.08824			  0.26847			 -0.04305
	160.50			  11.12376			  0.28668			 0.15178
	160.75			  11.17516			  0.30011			 0.29481
	161.00			  11.06649			  0.19691			 0.19034
	161.25			  11.11967			  0.00815			 0.15324
	161.50			  11.13841			  -0.19053			 0.11161
	161.75			  11.03479			  -0.30901			 0.06031
	162.00			  10.96501			  -0.36678			 -0.07846
	162.25			  11.05566			  -0.37965			 0.05633
	162.50			  10.92479			  -0.41792			 0.14783
	162.75			  10.98108			  -0.42859			 0.06528
	163.00			  11.08398			  -0.32354			 0.04700
	163.25			  10.94068			  -0.51487			 0.18910
	163.50			  10.88191			  -0.44643			 0.24059
	163.75			  11.04607			  -0.51413			 0.28032
	164.00			  10.92373			  -0.39989			 0.32015
	164.25			  10.93420			  -0.24554			 0.25246
	164.50			  10.65418			  -0.44754			 0.17380
	164.75			  10.69226			  -0.30183			 0.29071
	165.00			  10.56681			  -0.13773			 0.02760
	165.25			  10.51177			  -0.07445			 0.07884