--------------TurbSim v2.00.* User Time Series Input File-----------------------
     Time series input from low-res turbsim run
--------------------------------------------------------------------------------
          3 nComp - Number of velocity components in the file
          1 nPoints - Number of time series points contained in this file (-)
          1 RefPtID - Index of the reference point (1-nPoints)
     Pointyi Pointzi ! nPoints listed in order of increasing height
       (m)     (m)
       1.40494   94.00000
--------Time Series-------------------------------------------------------------
Elapsed Time         Point01u             Point01v           Point01w
         (s)            (m/s)                (m/s)              (m/s)
	0.00			  9.90963			  0.02250			 0.07296
	0.25			  9.92792			  0.14723			 0.02965
	0.50			  9.90724			  0.14576			 0.01158
	0.75			  9.99433			  0.16802			 -0.04585
	1.00			  10.00561			  0.06224			 0.15772
	1.25			  10.06429			  -0.14105			 0.08646
	1.50			  10.09075			  -0.14693			 0.15014
	1.75			  10.18264			  -0.17637			 0.14578
	2.00			  10.11934			  -0.13976			 0.18577
	2.25			  10.04059			  -0.23211			 0.14028
	2.50			  9.93813			  -0.21666			 -0.01081
	2.75			  10.02043			  -0.27387			 -0.04274
	3.00			  9.97098			  -0.26118			 0.02542
	3.25			  9.92908			  -0.17747			 -0.09370
	3.50			  9.88895			  -0.13424			 -0.04162
	3.75			  9.90217			  -0.08052			 -0.21400
	4.00			  9.87367			  -0.31692			 -0.27787
	4.25			  9.75533			  -0.30533			 -0.27656
	4.50			  9.73881			  -0.27001			 -0.24248
	4.75			  9.96690			  -0.15963			 -0.25952
	5.00			  9.85929			  -0.00785			 -0.31176
	5.25			  9.77415			  0.12424			 -0.29677
	5.50			  9.94808			  0.16324			 -0.24093
	5.75			  9.84082			  0.13988			 -0.13944
	6.00			  9.96716			  0.10934			 -0.20685
	6.25			  9.98554			  0.12313			 -0.24245
	6.50			  9.85787			  0.08505			 -0.29491
	6.75			  9.70916			  0.13086			 -0.26487
	7.00			  9.84944			  0.14742			 -0.13362
	7.25			  9.65749			  0.07604			 0.00418
	7.50			  9.62499			  -0.12762			 0.00263
	7.75			  9.66787			  -0.17416			 0.06292
	8.00			  9.62295			  -0.29760			 -0.04485
	8.25			  9.56107			  -0.41442			 -0.07564
	8.50			  9.65278			  -0.37837			 -0.21307
	8.75			  9.70871			  -0.18685			 -0.29404
	9.00			  9.84287			  -0.32078			 -0.21705
	9.25			  9.80451			  -0.19789			 -0.16444
	9.50			  9.85228			  -0.13277			 -0.25716
	9.75			  10.01191			  -0.07206			 -0.10859
	10.00			  9.97382			  -0.08861			 -0.02738
	10.25			  9.87714			  -0.16441			 -0.12228
	10.50			  9.95021			  -0.02386			 -0.06261
	10.75			  10.03091			  -0.35003			 -0.16453
	11.00			  10.06589			  -0.13994			 -0.21304
	11.25			  10.06651			  -0.11823			 -0.17716
	11.50			  10.11694			  -0.14583			 0.04597
	11.75			  10.20990			  -0.21500			 0.21055
	12.00			  10.12520			  -0.12982			 0.16630
	12.25			  10.20768			  -0.01963			 0.07026
	12.50			  10.34982			  -0.16091			 0.00054
	12.75			  10.42263			  -0.02717			 -0.22647
	13.00			  10.46906			  -0.11695			 0.07663
	13.25			  10.38951			  -0.35335			 0.24653
	13.50			  10.24142			  -0.26578			 0.07237
	13.75			  10.42866			  -0.19642			 0.04650
	14.00			  10.29451			  -0.30091			 0.31114
	14.25			  10.30446			  -0.09689			 0.34606
	14.50			  10.43879			  0.02287			 0.31014
	14.75			  10.38294			  -0.01263			 0.08064
	15.00			  10.40185			  -0.04152			 -0.11917
	15.25			  10.24311			  -0.17177			 -0.11348
	15.50			  10.37060			  -0.14417			 -0.34236
	15.75			  10.44616			  -0.09763			 -0.14939
	16.00			  10.45255			  -0.05072			 -0.17604
	16.25			  10.36589			  -0.05458			 -0.07203
	16.50			  10.39652			  -0.03122			 -0.02085
	16.75			  10.38134			  -0.07132			 -0.10912
	17.00			  10.33961			  -0.19789			 -0.08764
	17.25			  10.22437			  -0.14675			 -0.05608
	17.50			  10.24426			  -0.30570			 0.01286
	17.75			  10.31928			  -0.39419			 0.18023
	18.00			  10.25349			  -0.28252			 0.09463
	18.25			  10.45708			  -0.22218			 -0.08372
	18.50			  10.30925			  -0.24370			 -0.06052
	18.75			  10.28332			  -0.20139			 -0.15290
	19.00			  10.28794			  -0.24885			 -0.30517
	19.25			  10.18504			  -0.29613			 -0.09348
	19.50			  10.19507			  -0.26780			 -0.01634
	19.75			  10.26095			  -0.22641			 -0.16543
	20.00			  10.15716			  -0.31950			 -0.07237
	20.25			  10.03429			  -0.22310			 0.03409
	20.50			  9.94044			  -0.33440			 -0.04712
	20.75			  9.90901			  -0.43742			 -0.19824
	21.00			  10.00330			  -0.51413			 -0.14616
	21.25			  9.92925			  -0.50567			 -0.30109
	21.50			  9.96281			  -0.49868			 -0.10744
	21.75			  9.91452			  -0.60189			 -0.07234
	22.00			  10.04281			  -0.43135			 -0.11795
	22.25			  10.22100			  -0.41074			 -0.05337
	22.50			  10.11472			  -0.35739			 -0.18754
	22.75			  10.10283			  -0.28381			 -0.02557
	23.00			  10.18264			  0.06279			 0.03008
	23.25			  10.12609			  0.08505			 0.08845
	23.50			  9.99664			  0.02140			 -0.04240
	23.75			  9.96432			  0.07898			 -0.11565
	24.00			  10.09111			  0.09995			 -0.19783
	24.25			  9.97604			  0.09609			 -0.13362
	24.50			  9.96583			  -0.10609			 0.01189
	24.75			  9.83257			  -0.28436			 0.11114
	25.00			  9.85885			  -0.21151			 0.11074
	25.25			  9.67373			  -0.16882			 0.10875
	25.50			  9.81304			  -0.02625			 0.16382
	25.75			  9.90333			  -0.00031			 0.28017
	26.00			  9.81055			  0.07843			 0.15704
	26.25			  9.80096			  0.04936			 0.19746
	26.50			  9.85574			  -0.13792			 0.32836
	26.75			  9.89889			  -0.16846			 0.48137
	27.00			  10.06421			  -0.13553			 0.45134
	27.25			  9.96086			  -0.08641			 0.38722
	27.50			  10.12733			  -0.21077			 0.36079
	27.75			  9.84713			  -0.14564			 0.40793
	28.00			  9.92899			  -0.24867			 0.16323
	28.25			  9.87829			  -0.24517			 0.00434
	28.50			  9.94612			  -0.18888			 0.18630
	28.75			  9.99584			  -0.33918			 0.20996
	29.00			  9.91265			  -0.18115			 0.18322
	29.25			  9.70996			  -0.24830			 -0.00745
	29.50			  9.78462			  -0.28325			 0.04280
	29.75			  9.75799			  -0.26044			 0.06823
	30.00			  9.65020			  -0.36788			 -0.08981
	30.25			  9.71812			  -0.39069			 0.05384
	30.50			  9.67551			  -0.23653			 0.16683
	30.75			  9.64479			  -0.12357			 0.30511
	31.00			  9.73295			  -0.04373			 0.39562
	31.25			  9.84304			  -0.14509			 0.35187
	31.50			  9.60617			  -0.12375			 0.21640
	31.75			  9.88317			  0.07567			 0.25144
	32.00			  9.91895			  -0.10885			 0.02971
	32.25			  9.83736			  -0.27295			 0.06130
	32.50			  9.86631			  -0.21776			 0.08605
	32.75			  9.89694			  -0.12964			 0.12147
	33.00			  9.85485			  -0.06396			 -0.04100
	33.25			  9.93822			  -0.02551			 -0.05732
	33.50			  9.73606			  0.02913			 0.12678
	33.75			  9.74538			  -0.05697			 0.05614
	34.00			  9.77654			  0.10768			 -0.02732
	34.25			  9.61229			  0.08542			 -0.00633
	34.50			  9.56808			  0.03538			 -0.01130
	34.75			  9.61274			  -0.01576			 -0.05595
	35.00			  9.63520			  0.16158			 -0.10987
	35.25			  9.71155			  0.35898			 -0.19124
	35.50			  9.72230			  0.24695			 -0.13692
	35.75			  9.62801			  0.20776			 0.02853
	36.00			  9.42638			  0.18605			 0.16279
	36.25			  9.68385			  0.27914			 0.13493
	36.50			  9.87714			  0.24603			 0.29680
	36.75			  9.94959			  0.08413			 0.27650
	37.00			  9.91052			  0.05875			 0.26335
	37.25			  9.62792			  0.18918			 0.13695
	37.50			  9.56364			  0.22634			 0.05549
	37.75			  9.70143			  0.37701			 0.11512
	38.00			  9.72842			  0.20666			 0.24649
	38.25			  9.71298			  0.14061			 0.02321
	38.50			  9.73428			  0.23903			 0.14053
	38.75			  9.76234			  0.30416			 0.22874
	39.00			  9.69264			  0.23959			 0.26223
	39.25			  9.63964			  0.27988			 0.10272
	39.50			  9.55254			  0.21383			 0.01839
	39.75			  9.52351			  0.02453			 0.21873
	40.00			  9.64017			  -0.04906			 0.23042
	40.25			  9.39930			  0.05267			 0.17429
	40.50			  9.43464			  0.00484			 0.07778
	40.75			  9.27731			  -0.02698			 0.11394
	41.00			  9.28619			  -0.05716			 0.16360
	41.25			  9.40498			  -0.08641			 0.21811
	41.50			  9.48924			  0.01717			 0.27924
	41.75			  9.57145			  0.07751			 0.08966
	42.00			  9.61380			  0.19801			 0.03832
	42.25			  9.55654			  0.09793			 0.07259
	42.50			  9.46003			  0.15606			 0.08173
	42.75			  9.46660			  0.18072			 0.20822
	43.00			  9.33902			  0.18219			 0.33234
	43.25			  9.41448			  0.18145			 0.38458
	43.50			  9.32632			  0.28043			 0.40644
	43.75			  9.30137			  0.31225			 0.52550
	44.00			  9.47885			  0.28466			 0.38349
	44.25			  9.45657			  0.21346			 0.13947
	44.50			  9.46331			  0.18127			 0.16994
	44.75			  9.50504			  0.20868			 0.18145
	45.00			  9.49403			  0.13583			 0.27420
	45.25			  9.58504			  0.27215			 0.09585
	45.50			  9.71653			  0.34114			 0.13785
	45.75			  9.82458			  0.27160			 0.03723
	46.00			  9.67950			  -0.01981			 -0.05381
	46.25			  9.82396			  -0.21555			 0.07722
	46.50			  9.89827			  0.01202			 0.05029
	46.75			  9.82751			  0.00650			 0.09345
	47.00			  9.82271			  0.00595			 0.00695
	47.25			  9.73970			  0.04936			 -0.09327
	47.50			  9.71884			  0.00705			 -0.20091
	47.75			  9.78844			  -0.09395			 -0.20399
	48.00			  9.73384			  -0.01061			 -0.13101
	48.25			  9.52768			  -0.00638			 -0.01733
	48.50			  9.55778			  -0.00472			 0.04902
	48.75			  9.62490			  0.02949			 0.19006
	49.00			  9.65260			  0.05157			 0.07685
	49.25			  9.54260			  -0.07684			 -0.03285
	49.50			  9.71289			  -0.12210			 0.12716
	49.75			  9.73375			  -0.13516			 -0.04205
	50.00			  9.74591			  -0.13994			 -0.17504
	50.25			  9.84997			  -0.11455			 -0.13042
	50.50			  9.84358			  0.07659			 -0.12243
	50.75			  9.80957			  0.11945			 -0.21748
	51.00			  9.88255			  0.11982			 0.00636
	51.25			  9.96397			  0.14521			 -0.05602
	51.50			  10.00925			  -0.03250			 -0.08350
	51.75			  9.84553			  -0.13497			 -0.09532
	52.00			  9.71422			  -0.25051			 -0.05350
	52.25			  9.93707			  -0.30680			 -0.13481
	52.50			  9.84242			  -0.43595			 0.06357
	52.75			  9.72319			  -0.40339			 0.11142
	53.00			  9.72869			  -0.38168			 -0.00232
	53.25			  9.77033			  -0.38370			 -0.15172
	53.50			  9.85672			  -0.35169			 -0.00620
	53.75			  9.92135			  -0.48875			 -0.15611
	54.00			  9.94009			  -0.55406			 -0.12971
	54.25			  10.00765			  -0.33329			 -0.12548
	54.50			  9.94603			  -0.16331			 -0.11285
	54.75			  9.78445			  -0.13185			 -0.05014
	55.00			  9.90164			  -0.22475			 0.03049
	55.25			  9.94941			  -0.30846			 0.08456
	55.50			  9.99469			  -0.27295			 0.10191
	55.75			  9.97658			  -0.31306			 0.32541
	56.00			  9.92801			  -0.31802			 0.23972
	56.25			  9.98430			  -0.23855			 0.11416
	56.50			  9.88388			  -0.16147			 -0.00667
	56.75			  10.04858			  -0.05348			 -0.09168
	57.00			  9.97196			  -0.04023			 0.07508
	57.25			  9.90972			  0.07236			 0.15940
	57.50			  10.07948			  0.17630			 0.07837
	57.75			  10.01351			  0.00337			 -0.09818
	58.00			  9.77885			  -0.25143			 -0.10188
	58.25			  10.01218			  -0.16993			 -0.10104
	58.50			  9.88309			  -0.01668			 -0.05477
	58.75			  9.87723			  -0.14988			 -0.16142
	59.00			  9.94586			  -0.05973			 -0.07968
	59.25			  9.98670			  0.11835			 -0.01793
	59.50			  10.06545			  0.11265			 0.06631
	59.75			  10.05142			  -0.02441			 -0.20987
	60.00			  10.00614			  -0.20783			 -0.04050
	60.25			  9.91398			  -0.16147			 -0.02219
	60.50			  9.65411			  -0.11161			 -0.10701
	60.75			  9.69815			  -0.02239			 -0.06227
	61.00			  9.78480			  0.04421			 -0.05095
	61.25			  9.69859			  -0.15319			 0.11080
	61.50			  9.60874			  -0.16257			 0.21885
	61.75			  9.66876			  -0.08310			 0.15256
	62.00			  9.62872			  -0.10977			 0.30402
	62.25			  9.70436			  -0.10094			 0.34217
	62.50			  9.97302			  0.10897			 0.27731
	62.75			  9.91141			  0.16894			 0.24954
	63.00			  9.82653			  0.06058			 -0.04718
	63.25			  9.94044			  -0.11805			 -0.05856
	63.50			  9.75888			  -0.18667			 0.04093
	63.75			  9.88690			  -0.20470			 0.09902
	64.00			  9.88460			  -0.10756			 0.17852
	64.25			  9.82245			  -0.11731			 0.24376
	64.50			  9.92259			  -0.13957			 0.11525
	64.75			  9.99247			  -0.14693			 -0.04333
	65.00			  10.09643			  -0.05274			 -0.12439
	65.25			  10.17501			  -0.10756			 -0.33154
	65.50			  9.99025			  -0.29061			 -0.25794
	65.75			  10.03659			  -0.07537			 -0.18098
	66.00			  10.15121			  0.10235			 -0.13443
	66.25			  10.09386			  0.12203			 -0.05891
	66.50			  10.02647			  0.14963			 -0.02548
	66.75			  10.01981			  0.11210			 0.11208
	67.00			  10.00534			  -0.08015			 0.04190
	67.25			  9.77663			  -0.09450			 -0.02035
	67.50			  9.85734			  -0.05808			 0.01454
	67.75			  9.93405			  -0.18391			 -0.02181
	68.00			  10.07983			  -0.19292			 -0.00956
	68.25			  10.11925			  -0.13111			 -0.29867
	68.50			  10.03198			  -0.07518			 -0.23418
	68.75			  9.95101			  0.04311			 -0.25943
	69.00			  9.96805			  0.14815			 -0.13788
	69.25			  9.86542			  -0.03545			 -0.08036
	69.50			  9.81801			  -0.08953			 -0.02778
	69.75			  9.87776			  -0.11529			 -0.13126
	70.00			  10.00863			  -0.12136			 0.04743
	70.25			  10.08578			  -0.08181			 -0.00135
	70.50			  9.91141			  -0.01613			 0.04097
	70.75			  9.87536			  -0.21371			 0.08655
	71.00			  9.95740			  -0.22733			 0.07461
	71.25			  9.88522			  -0.26578			 0.06740
	71.50			  9.83514			  -0.54173			 0.01566
	71.75			  9.84118			  -0.64935			 -0.01936
	72.00			  9.98750			  -0.50015			 -0.26207
	72.25			  10.08782			  -0.60446			 -0.11279
	72.50			  10.05355			  -0.46593			 -0.06273
	72.75			  9.96477			  -0.36641			 -0.04582
	73.00			  10.23130			  -0.51873			 -0.03888
	73.25			  10.34672			  -0.55332			 -0.19790
	73.50			  10.26477			  -0.58349			 -0.22607
	73.75			  10.21363			  -0.49629			 -0.24845
	74.00			  10.14376			  -0.46336			 -0.43371
	74.25			  10.03988			  -0.46097			 -0.10894
	74.50			  9.94195			  -0.26394			 -0.09009
	74.75			  9.99868			  -0.27700			 -0.19681
	75.00			  10.05559			  -0.29172			 -0.05906
	75.25			  10.11002			  -0.25437			 -0.16537
	75.50			  9.98252			  -0.27148			 0.08670
	75.75			  9.88238			  -0.18409			 0.17302
	76.00			  9.68670			  -0.26927			 0.17206
	76.25			  9.71857			  -0.19973			 0.16736
	76.50			  9.88317			  -0.12909			 0.36322
	76.75			  9.74733			  -0.10756			 0.21991
	77.00			  9.72425			  -0.08144			 0.06777
	77.25			  9.77672			  -0.00288			 0.22467
	77.50			  9.84269			  0.08744			 0.10573
	77.75			  10.05160			  0.14337			 0.11982
	78.00			  10.04716			  0.11154			 0.09031
	78.25			  10.00996			  0.14043			 -0.06031
	78.50			  10.14313			  0.25118			 -0.00322
	78.75			  10.16782			  0.28392			 -0.11289
	79.00			  10.29185			  0.21788			 -0.07436
	79.25			  10.32425			  0.09922			 0.06935
	79.50			  10.42671			  0.03924			 -0.02834
	79.75			  10.31174			  0.13160			 0.14370
	80.00			  10.24497			  0.39136			 0.12442
	80.25			  10.30011			  0.40387			 -0.09100
	80.50			  10.41455			  0.24235			 0.07162
	80.75			  10.41233			  0.26203			 -0.01034
	81.00			  10.31697			  0.35475			 -0.04193
	81.25			  10.31129			  0.23278			 -0.04280
	81.50			  10.34743			  0.30563			 -0.10576
	81.75			  10.20981			  0.16581			 -0.13549
	82.00			  10.30179			  0.16214			 -0.25669
	82.25			  10.07157			  0.17998			 0.05717
	82.50			  9.94745			  0.20868			 0.11058
	82.75			  9.84802			  0.06150			 0.07299
	83.00			  9.77983			  0.10363			 0.06413
	83.25			  9.79750			  0.00116			 0.06242
	83.50			  9.75231			  -0.03103			 0.14815
	83.75			  9.70649			  -0.01374			 0.31465
	84.00			  9.65935			  -0.10352			 0.24127
	84.25			  9.72150			  -0.10186			 0.10318
	84.50			  9.68377			  -0.10112			 0.03602
	84.75			  9.70028			  -0.04041			 -0.05514
	85.00			  9.84358			  0.00300			 -0.00922
	85.25			  9.79510			  0.13748			 0.01786
	85.50			  9.82626			  0.08082			 -0.26814
	85.75			  9.91523			  -0.02938			 -0.22168
	86.00			  9.87252			  -0.03582			 -0.21350
	86.25			  9.82795			  -0.15282			 -0.26353
	86.50			  9.79981			  -0.18391			 -0.15949
	86.75			  9.68226			  -0.35850			 -0.19062
	87.00			  9.82546			  -0.30147			 -0.17355
	87.25			  9.98670			  -0.37616			 -0.24307
	87.50			  9.84056			  -0.41681			 -0.32892
	87.75			  9.84793			  -0.22843			 -0.37933
	88.00			  9.84766			  -0.31802			 -0.22184
	88.25			  9.86480			  -0.35850			 -0.23291
	88.50			  9.90466			  -0.29613			 -0.44182
	88.75			  9.72665			  -0.39989			 -0.35778
	89.00			  9.61807			  -0.51929			 -0.10231
	89.25			  9.60049			  -0.53143			 -0.24581
	89.50			  9.59622			  -0.59122			 -0.05698
	89.75			  9.59924			  -0.66241			 -0.20172
	90.00			  9.78809			  -0.49574			 -0.09665
	90.25			  9.76989			  -0.59306			 -0.20903
	90.50			  9.68989			  -0.56049			 -0.33834
	90.75			  9.70791			  -0.47660			 -0.46306
	91.00			  9.81153			  -0.41534			 -0.29360
	91.25			  9.84216			  -0.48304			 -0.08879
	91.50			  9.86391			  -0.46520			 -0.07421
	91.75			  9.90830			  -0.34985			 0.07660
	92.00			  10.04947			  -0.20304			 0.20150
	92.25			  10.05018			  -0.18722			 0.24506
	92.50			  10.07442			  -0.23873			 0.05766
	92.75			  10.01315			  -0.13681			 0.03105
	93.00			  9.92890			  -0.11842			 -0.07815
	93.25			  9.83896			  -0.25308			 -0.23172
	93.50			  9.73615			  -0.31030			 -0.24960
	93.75			  9.62277			  -0.45913			 -0.20228
	94.00			  9.57829			  -0.51542			 -0.23857
	94.25			  9.64514			  -0.28712			 -0.24696
	94.50			  9.81925			  -0.33568			 -0.18247
	94.75			  9.92819			  -0.29981			 -0.14846
	95.00			  9.80593			  -0.42583			 -0.13891
	95.25			  9.75772			  -0.21022			 -0.16124
	95.50			  9.85183			  -0.16662			 -0.23048
	95.75			  10.04583			  -0.11253			 0.02007
	96.00			  10.13506			  -0.37689			 0.04930
	96.25			  10.00472			  -0.36917			 -0.09488
	96.50			  9.90191			  -0.51027			 -0.19650
	96.75			  9.86613			  -0.36586			 -0.14743
	97.00			  10.05728			  -0.45158			 -0.34142
	97.25			  9.99229			  -0.49500			 -0.15912
	97.50			  9.98119			  -0.38977			 0.06867
	97.75			  10.06776			  -0.43724			 -0.02812
	98.00			  10.05222			  -0.21574			 -0.03876
	98.25			  9.90741			  -0.09763			 -0.09233
	98.50			  9.87208			  -0.12964			 -0.10141
	98.75			  10.04689			  -0.00896			 0.00975
	99.00			  10.07957			  -0.17416			 0.07660
	99.25			  10.23032			  -0.05550			 0.09693
	99.50			  10.18469			  -0.11547			 -0.02604
	99.75			  10.16320			  0.02894			 0.00539
	100.00			  10.12129			  0.13675			 0.03863
	100.25			  10.12715			  0.26221			 0.00387
	100.50			  10.05444			  0.38547			 -0.14591
	100.75			  10.06270			  0.30637			 0.03186
	101.00			  10.06669			  0.11154			 -0.01189
	101.25			  10.20679			  0.17538			 -0.00309
	101.50			  10.22144			  0.21751			 -0.04212
	101.75			  10.03828			  0.25430			 0.07181
	102.00			  9.92277			  0.17649			 -0.03574
	102.25			  9.96326			  0.16195			 0.01205
	102.50			  10.00863			  0.16986			 -0.01046
	102.75			  9.90315			  0.11246			 0.02259
	103.00			  9.96335			  0.17520			 -0.16951
	103.25			  10.01324			  0.16913			 -0.21559
	103.50			  9.98288			  0.15533			 -0.17737
	103.75			  9.83115			  0.14447			 -0.20069
	104.00			  9.81818			  0.12221			 -0.03465
	104.25			  9.82458			  0.17225			 -0.23645
	104.50			  9.84065			  0.19875			 -0.09933
	104.75			  9.74796			  0.16214			 -0.25784
	105.00			  9.77433			  0.07659			 -0.10278
	105.25			  9.73970			  -0.04520			 -0.06684
	105.50			  9.75541			  -0.14804			 -0.00617
	105.75			  9.82138			  -0.05568			 0.05505
	106.00			  9.68971			  -0.12081			 0.01649
	106.25			  9.72860			  -0.12872			 -0.08350
	106.50			  9.69406			  0.04219			 -0.01733
	106.75			  9.64363			  0.20095			 0.14572
	107.00			  9.69433			  0.16232			 0.06435
	107.25			  9.80176			  0.13454			 0.04908
	107.50			  9.81641			  -0.01981			 0.00039
	107.75			  9.85530			  0.09811			 0.10785
	108.00			  9.73455			  0.17041			 0.16071
	108.25			  9.77752			  0.18642			 0.13005
	108.50			  9.73135			  0.17980			 0.12187
	108.75			  9.64124			  -0.09321			 0.07022
	109.00			  9.68545			  -0.18906			 0.01715
	109.25			  9.74884			  -0.04575			 0.02620
	109.50			  9.68785			  0.01514			 0.13527
	109.75			  9.82875			  -0.15448			 -0.01168
	110.00			  9.93742			  -0.00583			 -0.24845
	110.25			  10.05577			  0.07641			 -0.17859
	110.50			  10.09342			  0.17777			 -0.24656
	110.75			  10.26974			  0.15606			 -0.28060
	111.00			  9.99211			  0.23609			 -0.27644
	111.25			  9.93360			  0.14135			 -0.16991
	111.50			  9.94319			  0.13233			 0.04100
	111.75			  9.74600			  0.14926			 0.05772
	112.00			  9.84544			  0.07990			 -0.05953
	112.25			  9.77504			  0.38235			 -0.03854
	112.50			  9.72585			  0.39854			 0.04292
	112.75			  9.76660			  0.61415			 0.05539
	113.00			  9.95385			  0.46900			 0.11917
	113.25			  9.84260			  0.10271			 0.09970
	113.50			  9.90821			  0.16471			 -0.01597
	113.75			  9.82413			  0.11559			 -0.11307
	114.00			  9.73455			  -0.04336			 -0.05048
	114.25			  9.90164			  -0.03526			 0.02601
	114.50			  9.86355			  0.10639			 -0.01298
	114.75			  9.83825			  0.11375			 0.04078
	115.00			  9.85601			  0.09811			 0.00141
	115.25			  9.79599			  0.12829			 -0.02349
	115.50			  9.87803			  0.09462			 0.00104
	115.75			  9.91665			  0.08873			 0.08468
	116.00			  9.79048			  0.07659			 -0.04159
	116.25			  9.77521			  0.22469			 -0.08835
	116.50			  9.77104			  0.28098			 -0.11121
	116.75			  9.80904			  0.24235			 -0.00997
	117.00			  10.00223			  0.23223			 0.02439
	117.25			  10.10629			  0.34132			 -0.10126
	117.50			  9.83940			  0.29202			 -0.05723
	117.75			  9.95917			  0.51296			 0.04871
	118.00			  10.10682			  0.41344			 -0.06503
	118.25			  10.04441			  0.24787			 -0.07682
	118.50			  10.05142			  0.35567			 -0.11024
	118.75			  9.89383			  0.26166			 -0.03876
	119.00			  9.83967			  0.17851			 0.05328
	119.25			  9.84509			  -0.07666			 0.13847
	119.50			  9.76580			  -0.08512			 -0.03531
	119.75			  9.74174			  0.17980			 0.01267
	120.00			  9.64097			  0.28264			 0.08913
	120.25			  9.66317			  0.36781			 0.07930
	120.50			  9.77317			  0.21898			 0.01435
	120.75			  9.83701			  0.16214			 -0.12212
	121.00			  10.06563			  0.26111			 -0.05912
	121.25			  9.99051			  0.33875			 -0.23975
	121.50			  10.20173			  0.35806			 -0.41465
	121.75			  10.31777			  0.25099			 -0.27874
	122.00			  10.16640			  0.23793			 -0.10968
	122.25			  9.91647			  0.22137			 -0.21465
	122.50			  9.95323			  0.45538			 -0.28197
	122.75			  10.13017			  0.43809			 -0.25284
	123.00			  10.12120			  0.47617			 -0.22535
	123.25			  9.93112			  0.68203			 -0.15744
	123.50			  9.89365			  0.55399			 -0.03904
	123.75			  9.92180			  0.38032			 -0.05434
	124.00			  9.99815			  0.26461			 0.01077
	124.25			  9.99078			  0.28245			 -0.18788
	124.50			  10.01626			  0.36873			 -0.08972
	124.75			  9.95145			  0.43110			 -0.13179
	125.00			  9.81854			  0.25394			 -0.22314
	125.25			  9.79173			  0.19047			 -0.31154
	125.50			  9.86302			  0.23388			 -0.19531
	125.75			  9.82325			  0.05175			 -0.27274
	126.00			  9.79723			  0.07733			 -0.34341
	126.25			  9.83053			  0.16968			 -0.31288
	126.50			  9.65766			  0.19212			 -0.24923
	126.75			  9.80220			  0.13564			 -0.28605
	127.00			  9.85254			  0.00631			 -0.11861
	127.25			  9.81517			  -0.10591			 -0.14015
	127.50			  9.84420			  -0.17103			 -0.16040
	127.75			  9.80789			  -0.16404			 -0.26182
	128.00			  9.83159			  -0.24738			 0.00922
	128.25			  9.85991			  -0.28252			 0.06049
	128.50			  9.87891			  -0.36714			 0.06945
	128.75			  9.80398			  -0.22254			 0.02604
	129.00			  9.81357			  -0.09984			 0.02103
	129.25			  9.95642			  -0.28178			 0.07352
	129.50			  10.00516			  -0.39621			 0.04181
	129.75			  10.20182			  -0.26375			 0.10598
	130.00			  10.14189			  -0.41479			 0.02368
	130.25			  10.22704			  -0.43374			 -0.13950
	130.50			  10.12041			  -0.41424			 -0.10082
	130.75			  10.21043			  -0.48176			 -0.10234
	131.00			  10.23503			  -0.64530			 -0.16167
	131.25			  10.20457			  -0.51101			 -0.31879
	131.50			  10.36936			  -0.42657			 -0.32068
	131.75			  10.35284			  -0.21868			 -0.22274
	132.00			  10.36456			  -0.26394			 -0.26667
	132.25			  10.27072			  -0.25621			 -0.33312
	132.50			  10.16116			  -0.34691			 -0.34419
	132.75			  10.07344			  -0.36586			 -0.07707
	133.00			  10.14260			  -0.39492			 -0.36434
	133.25			  10.28510			  -0.41387			 -0.16099
	133.50			  10.21487			  -0.51837			 -0.18145
	133.75			  10.19436			  -0.61053			 -0.24656
	134.00			  10.11685			  -0.52848			 -0.24447
	134.25			  10.06864			  -0.60998			 -0.23869
	134.50			  10.12476			  -0.55902			 -0.00462
	134.75			  10.06660			  -0.67253			 -0.29450
	135.00			  10.09146			  -0.51377			 -0.22706
	135.25			  9.98048			  -0.39823			 -0.11522
	135.50			  10.08036			  -0.19329			 -0.04392
	135.75			  10.22855			  -0.28436			 -0.11997
	136.00			  10.19836			  -0.52425			 -0.09902
	136.25			  10.09777			  -0.44827			 -0.06553
	136.50			  10.08223			  -0.17122			 0.05148
	136.75			  10.06358			  -0.24922			 0.08456
	137.00			  9.94319			  -0.21279			 0.01566
	137.25			  10.05914			  0.00208			 -0.06124
	137.50			  10.02168			  0.00558			 -0.03733
	137.75			  10.04592			  -0.04336			 -0.21947
	138.00			  10.14109			  -0.13313			 -0.28735
	138.25			  10.04796			  -0.07353			 -0.31347
	138.50			  10.13941			  -0.06249			 -0.45644
	138.75			  10.13976			  -0.05329			 -0.44916
	139.00			  10.05408			  -0.06359			 -0.34615
	139.25			  10.32132			  0.06390			 -0.40632
	139.50			  10.25056			  -0.04446			 -0.29808
	139.75			  10.21434			  -0.04520			 -0.31499
	140.00			  10.18406			  0.12313			 -0.32603
	140.25			  10.04352			  0.15312			 -0.19634
	140.50			  10.06065			  0.19507			 -0.07996
	140.75			  10.03473			  0.09112			 -0.10974
	141.00			  10.05639			  0.33120			 -0.07980
	141.25			  10.13621			  0.30434			 -0.05937
	141.50			  10.03429			  0.23370			 -0.22411
	141.75			  9.92943			  0.14447			 -0.31067
	142.00			  10.03162			  0.17759			 -0.31291
	142.25			  10.17288			  0.14999			 -0.18176
	142.50			  10.22899			  0.32568			 -0.29699
	142.75			  10.10762			  0.01772			 -0.26611
	143.00			  10.15583			  -0.11235			 -0.33126
	143.25			  10.30801			  0.10694			 -0.29827
	143.50			  10.45033			  0.25081			 -0.16686
	143.75			  10.44251			  0.07346			 -0.15769
	144.00			  10.54950			  -0.21463			 -0.25871
	144.25			  10.64068			  -0.46483			 -0.20691
	144.50			  10.53956			  -0.27240			 -0.08543
	144.75			  10.69200			  -0.34157			 -0.18962
	145.00			  10.78149			  -0.28105			 -0.31872
	145.25			  10.75219			  -0.33366			 -0.24133
	145.50			  10.68472			  -0.46685			 -0.13350
	145.75			  10.65418			  -0.33366			 0.02219
	146.00			  10.61644			  -0.29705			 -0.09037
	146.25			  10.61023			  -0.21610			 -0.23390
	146.50			  10.59815			  -0.18833			 -0.16211
	146.75			  10.65000			  -0.23285			 -0.08521
	147.00			  10.72432			  -0.25290			 -0.03086
	147.25			  10.74784			  -0.32060			 -0.06659
	147.50			  10.76622			  -0.41387			 0.05782
	147.75			  10.80946			  -0.41038			 0.08726
	148.00			  10.81363			  -0.61164			 0.01886
	148.25			  10.95196			  -0.40651			 -0.05940
	148.50			  10.91680			  -0.39032			 -0.03154
	148.75			  10.79623			  -0.47348			 -0.03400
	149.00			  10.86238			  -0.48599			 -0.03761
	149.25			  10.81337			  -0.42031			 0.00247
	149.50			  10.46382			  -0.49978			 -0.13524
	149.75			  10.50058			  -0.68633			 -0.27137
	150.00			  10.50804			  -0.73453			 -0.19183
	150.25			  10.60579			  -0.73710			 -0.05701
	150.50			  10.53068			  -0.79947			 -0.11475
	150.75			  10.48815			  -0.54504			 -0.25850
	151.00			  10.70150			  -0.44551			 -0.20458
	151.25			  10.72920			  -0.52131			 -0.20191
	151.50			  10.49561			  -0.33587			 -0.09992
	151.75			  10.52837			  -0.22641			 -0.27787
	152.00			  10.58706			  -0.40228			 -0.23962
	152.25			  10.52056			  -0.60520			 -0.22308
	152.50			  10.45734			  -0.53566			 -0.28468
	152.75			  10.54639			  -0.48323			 -0.19034
	153.00			  10.55722			  -0.16882			 -0.18823
	153.25			  10.33429			  -0.31913			 -0.04246
	153.50			  10.31103			  -0.41148			 0.01450
	153.75			  10.15903			  -0.57227			 0.14301
	154.00			  10.28386			  -0.59269			 0.28175
	154.25			  10.32932			  -0.58312			 0.13776
	154.50			  10.39173			  -0.70197			 -0.01967
	154.75			  10.56788			  -0.82633			 -0.00602
	155.00			  10.71029			  -0.79211			 -0.15701
	155.25			  10.79676			  -0.69921			 -0.16201
	155.50			  10.71677			  -0.57319			 -0.13129
	155.75			  10.57658			  -0.56804			 -0.11254
	156.00			  10.66501			  -0.51818			 0.01506
	156.25			  10.63109			  -0.61385			 0.25442
	156.50			  10.48167			  -0.84013			 0.19242
	156.75			  10.31706			  -0.78751			 0.08953
	157.00			  10.40025			  -0.82578			 0.12399
	157.25			  10.32177			  -0.76875			 0.04631
	157.50			  10.06882			  -0.75164			 0.11652
	157.75			  10.13186			  -0.71117			 0.14277
	158.00			  10.08551			  -0.72000			 0.08745
	158.25			  9.97578			  -0.65377			 0.11379
	158.50			  9.74352			  -0.63739			 0.09780
	158.75			  9.64195			  -0.63095			 0.18748
	159.00			  9.74636			  -0.55626			 0.03727
	159.25			  9.69788			  -0.64567			 0.13418
	159.50			  9.80007			  -0.51597			 0.13114
	159.75			  9.90732			  -0.22457			 0.28598
	160.00			  9.97915			  -0.20304			 0.27463
	160.25			  9.81952			  -0.30018			 0.31661
	160.50			  9.87474			  -0.41792			 0.51971
	160.75			  9.94879			  -0.23928			 0.35632
	161.00			  9.93600			  -0.18833			 0.42528
	161.25			  9.86639			  -0.34010			 0.29671
	161.50			  10.04574			  -0.24775			 0.18763
	161.75			  9.88246			  -0.21040			 0.17274
	162.00			  9.82387			  -0.09579			 0.11186
	162.25			  9.88264			  0.18237			 0.15918
	162.50			  10.09075			  0.18624			 0.06575
	162.75			  10.12529			  0.15846			 0.07691
	163.00			  10.05728			  0.17207			 0.04507
	163.25			  9.94639			  0.27215			 -0.05278
	163.50			  9.91931			  0.26001			 -0.09258
	163.75			  10.03508			  0.26645			 -0.24388
	164.00			  10.00072			  0.20666			 -0.04121
	164.25			  9.97515			  0.03796			 0.04917
	164.50			  9.77415			  -0.05513			 0.14348
	164.75			  9.66849			  -0.09892			 0.18773
	165.00			  9.80673			  -0.25179			 0.11683
	165.25			  9.72141			  -0.36953			 -0.03646
	165.50			  9.72896			  -0.34525			 -0.05281
	165.75			  9.80425			  -0.32299			 -0.06534
	166.00			  9.85805			  -0.33274			 -0.00095