--------------TurbSim v2.00.* User Time Series Input File-----------------------
     Time series input from low-res turbsim run
--------------------------------------------------------------------------------
          3 nComp - Number of velocity components in the file
          1 nPoints - Number of time series points contained in this file (-)
          1 RefPtID - Index of the reference point (1-nPoints)
     Pointyi Pointzi ! nPoints listed in order of increasing height
       (m)     (m)
       2.26334   94.00000
--------Time Series-------------------------------------------------------------
Elapsed Time         Point01u             Point01v           Point01w
         (s)            (m/s)                (m/s)              (m/s)
	0.00			  9.00457			  0.00342			 0.24192
	0.25			  8.85336			  -0.13683			 0.13639
	0.50			  8.98536			  -0.14015			 -0.08055
	0.75			  9.12017			  0.14802			 -0.35165
	1.00			  9.21144			  -0.00963			 -0.27341
	1.25			  9.51641			  0.19546			 -0.01346
	1.50			  9.62150			  0.40324			 -0.10663
	1.75			  9.53158			  0.57353			 0.31699
	2.00			  9.56107			  0.56275			 0.24234
	2.25			  9.72328			  0.32120			 0.43059
	2.50			  9.61477			  0.35911			 0.22695
	2.75			  9.66591			  0.45586			 0.15426
	3.00			  9.70615			  0.60066			 -0.19737
	3.25			  9.80610			  0.62221			 0.16093
	3.50			  9.98483			  0.55157			 0.13747
	3.75			  10.02532			  0.62180			 0.17834
	4.00			  10.03168			  0.47927			 0.00240
	4.25			  10.07915			  0.61351			 0.17260
	4.50			  10.30131			  0.65391			 0.05167
	4.75			  10.49252			  0.59321			 -0.11913
	5.00			  10.53925			  0.95802			 0.06198
	5.25			  10.46059			  1.14488			 -0.19429
	5.50			  10.39428			  1.11484			 -0.14045
	5.75			  10.16919			  1.09102			 -0.14624
	6.00			  10.13799			  0.80638			 -0.16093
	6.25			  10.15072			  0.95719			 -0.27304
	6.50			  10.25030			  1.10138			 0.13541
	6.75			  10.20099			  1.10842			 -0.03011
	7.00			  10.24895			  0.94828			 0.11344
	7.25			  10.20833			  1.06533			 0.55217
	7.50			  10.22840			  0.95263			 0.26367
	7.75			  10.31171			  0.63775			 0.21724
	8.00			  10.39710			  0.59114			 0.13084
	8.25			  10.29556			  0.68995			 0.11964
	8.50			  10.09860			  0.53147			 0.05298
	8.75			  10.25592			  0.71585			 -0.14871
	9.00			  10.39184			  1.05746			 -0.08437
	9.25			  10.40749			  1.00649			 0.02456
	9.50			  10.35978			  0.71336			 0.10644
	9.75			  10.35403			  0.60336			 -0.09800
	10.00			  10.18105			  0.43804			 -0.14134
	10.25			  10.06949			  0.40200			 -0.02657
	10.50			  9.97174			  0.55488			 -0.01733
	10.75			  9.92244			  0.38874			 -0.03296
	11.00			  9.97052			  0.24849			 -0.25121
	11.25			  10.14497			  0.32162			 -0.18561
	11.50			  9.76169			  0.03387			 -0.04383
	11.75			  9.93174			  -0.03263			 -0.13802
	12.00			  9.81613			  -0.01585			 -0.09338
	12.25			  9.54076			  -0.10555			 0.08325
	12.50			  9.33671			  0.03200			 0.11955
	12.75			  9.34356			  0.08711			 0.27230
	13.00			  9.61807			  0.14926			 0.27981
	13.25			  9.45635			  0.16707			 0.40050
	13.50			  9.25682			  -0.15879			 0.00119
	13.75			  9.26306			  0.01813			 -0.08755
	14.00			  9.29548			  0.23730			 -0.00240
	14.25			  9.33940			  0.14760			 -0.08825
	14.50			  9.45610			  0.13704			 -0.18132
	14.75			  9.39677			  -0.00922			 -0.14087
	15.00			  9.76475			  -0.11011			 -0.25643
	15.25			  9.70065			  0.11777			 -0.34074
	15.50			  9.78200			  0.13165			 -0.18752
	15.75			  9.65208			  0.11342			 -0.51401
	16.00			  9.65294			  0.10658			 -0.40829
	16.25			  9.66627			  0.25263			 -0.18449
	16.50			  9.88366			  0.08856			 0.03875
	16.75			  9.83656			  0.28909			 0.07546
	17.00			  9.72658			  0.08566			 0.00488
	17.25			  10.05664			  0.31209			 0.06520
	17.50			  9.94544			  0.24227			 0.25769
	17.75			  10.11683			  0.25035			 -0.01738
	18.00			  10.08098			  0.57456			 0.24384
	18.25			  9.87351			  0.59839			 0.21165
	18.50			  9.99327			  0.59694			 0.29782
	18.75			  10.10349			  0.73677			 0.07108
	19.00			  10.43893			  0.48714			 -0.12557
	19.25			  10.68275			  0.57477			 -0.22349
	19.50			  10.77180			  0.48900			 -0.39761
	19.75			  10.79040			  0.46269			 -0.51494
	20.00			  10.76532			  0.24621			 -0.58646
	20.25			  10.88386			  0.17350			 -0.36742
	20.50			  10.73621			  0.06743			 -0.07182
	20.75			  10.63149			  -0.02206			 0.07201
	21.00			  10.41398			  0.18655			 0.02582
	21.25			  10.57998			  0.10389			 -0.05960
	21.50			  10.39269			  0.38977			 0.00502
	21.75			  10.53937			  0.27811			 0.19779
	22.00			  10.69889			  0.60087			 -0.08237
	22.25			  10.64739			  0.70259			 0.07192
	22.50			  10.29580			  0.74464			 0.05857
	22.75			  10.13151			  0.56669			 -0.00492
	23.00			  9.99058			  0.51635			 -0.10527
	23.25			  10.18656			  0.63340			 0.07201
	23.50			  9.92097			  0.53044			 0.00394
	23.75			  9.98936			  0.63112			 0.08755
	24.00			  10.05346			  0.73035			 0.10765
	24.25			  10.14276			  0.49543			 0.35777
	24.50			  10.25947			  0.66095			 0.26166
	24.75			  10.13212			  0.82979			 0.11162
	25.00			  10.03817			  0.72517			 -0.02909
	25.25			  10.30853			  0.81404			 -0.01859
	25.50			  10.18901			  0.63319			 0.06786
	25.75			  10.18240			  0.76494			 -0.04024
	26.00			  10.00881			  0.77012			 0.16989
	26.25			  9.73490			  0.48113			 0.24020
	26.50			  9.81711			  0.17184			 -0.00002
	26.75			  9.69943			  0.15672			 0.39164
	27.00			  9.68780			  0.21037			 0.44883
	27.25			  9.83607			  0.42043			 0.62164
	27.50			  9.94030			  0.15444			 0.21552
	27.75			  9.97590			  0.05065			 -0.16163
	28.00			  10.05799			  0.16148			 -0.03571
	28.25			  9.87754			  0.33322			 0.10476
	28.50			  9.88550			  0.23047			 0.10751
	28.75			  9.75105			  0.16190			 0.28788
	29.00			  9.70799			  0.22425			 0.49106
	29.25			  9.93480			  0.13082			 0.39728
	29.50			  10.22412			  0.27397			 0.36005
	29.75			  10.43269			  0.37113			 0.46404
	30.00			  10.27978			  0.29448			 0.35002
	30.25			  10.20748			  0.28018			 0.36644
	30.50			  10.32076			  0.34358			 0.38767
	30.75			  10.60470			  0.32472			 0.15683
	31.00			  10.77168			  0.23979			 0.34484
	31.25			  10.75553			  0.35911			 0.49442
	31.50			  10.66831			  0.44757			 0.32478
	31.75			  10.30424			  0.50868			 0.40517
	32.00			  10.29862			  0.31810			 0.40890
	32.25			  10.14374			  0.19442			 0.15566
	32.50			  10.25874			  0.09975			 0.38189
	32.75			  10.19635			  0.02993			 0.44478
	33.00			  10.21176			  0.15900			 -0.06856
	33.25			  9.95926			  0.38459			 0.13541
	33.50			  9.92746			  0.30069			 0.15958
	33.75			  9.96269			  0.37403			 0.17834
	34.00			  10.14949			  0.18903			 0.15086
	34.25			  10.10325			  0.12067			 0.28452
	34.50			  10.39624			  -0.12378			 0.24006
	34.75			  10.36725			  0.03200			 0.23661
	35.00			  10.12343			  0.04423			 0.27687
	35.25			  10.10349			  -0.04755			 0.11143
	35.50			  10.30253			  -0.24684			 0.10229
	35.75			  10.35220			  -0.39413			 -0.02424
	36.00			  10.24173			  -0.26797			 0.09403
	36.25			  10.13016			  -0.09126			 0.11209
	36.50			  10.05884			  -0.15278			 -0.15132
	36.75			  10.12980			  0.23813			 -0.23763
	37.00			  10.24173			  0.10016			 -0.16998
	37.25			  10.20515			  0.12398			 -0.09053
	37.50			  10.28822			  0.08400			 -0.25363
	37.75			  9.98361			  0.05583			 -0.20483
	38.00			  9.89161			  0.05624			 0.06702
	38.25			  9.97223			  -0.02020			 0.03310
	38.50			  9.78127			  0.15340			 0.12800
	38.75			  9.91791			  -0.04692			 0.13569
	39.00			  9.94226			  -0.33156			 0.05680
	39.25			  9.91216			  -0.36430			 -0.00180
	39.50			  9.70175			  -0.26320			 -0.07672
	39.75			  9.63177			  -0.57332			 -0.07360
	40.00			  9.82555			  -0.63734			 0.36663
	40.25			  9.76965			  -0.11902			 0.26381
	40.50			  9.66688			  -0.11239			 0.31424
	40.75			  9.95266			  -0.09644			 0.20036
	41.00			  9.94042			  0.05479			 0.24832
	41.25			  9.86788			  0.28806			 0.22765
	41.50			  9.79093			  0.38625			 0.16849
	41.75			  9.72548			  0.55550			 0.39042
	42.00			  9.87644			  0.54929			 0.32623
	42.25			  9.85650			  0.65763			 0.53748
	42.50			  9.82555			  0.71523			 0.31951
	42.75			  9.71056			  0.78090			 0.23306
	43.00			  9.75631			  0.47657			 0.24234
	43.25			  9.71998			  0.51531			 0.31242
	43.50			  9.70456			  0.61475			 0.39504
	43.75			  9.84170			  0.41132			 0.19457
	44.00			  9.83558			  0.44509			 0.12277
	44.25			  10.00538			  0.41629			 0.27719
	44.50			  10.06704			  0.42478			 -0.05969
	44.75			  10.18717			  0.36678			 0.09898
	45.00			  10.12490			  0.45026			 0.24822
	45.25			  10.28834			  0.20809			 0.23908
	45.50			  10.36040			  0.17225			 0.36994
	45.75			  10.40933			  -0.03884			 0.35184
	46.00			  10.41936			  -0.09126			 0.57975
	46.25			  10.30950			  -0.23834			 0.50146
	46.50			  10.43062			  -0.29635			 0.43167
	46.75			  10.63479			  -0.38273			 0.26852
	47.00			  10.53509			  -0.01150			 0.48401
	47.25			  10.41630			  0.28785			 0.76323
	47.50			  10.21947			  0.46104			 0.70594
	47.75			  10.50047			  0.42623			 0.53281
	48.00			  10.66244			  0.68312			 0.48849
	48.25			  10.68018			  0.70259			 0.34442
	48.50			  10.96216			  0.62656			 0.40195
	48.75			  11.04106			  0.20892			 0.39136
	49.00			  10.96754			  0.08690			 0.41436
	49.25			  10.77694			  -0.11259			 0.26894
	49.50			  10.84300			  -0.12937			 0.19737
	49.75			  11.07507			  -0.25947			 0.26273
	50.00			  11.01329			  0.17578			 0.00474
	50.25			  10.82857			  0.20229			 -0.02699
	50.50			  10.67589			  -0.00197			 0.15734
	50.75			  10.55870			  0.11052			 0.07210
	51.00			  10.39783			  0.04381			 -0.00455
	51.25			  10.46707			  0.20250			 -0.03870
	51.50			  10.57338			  -0.09146			 0.30113
	51.75			  10.32688			  -0.01108			 0.24346
	52.00			  10.28027			  0.36243			 0.27057
	52.25			  10.41190			  0.31996			 0.12314
	52.50			  10.38180			  0.34441			 0.21123
	52.75			  10.32908			  0.38418			 0.24832
	53.00			  10.07340			  0.41132			 0.42387
	53.25			  10.03156			  0.30960			 0.31461
	53.50			  9.96293			  0.27418			 0.05979
	53.75			  10.00343			  0.13973			 0.00744
	54.00			  10.05419			  0.29137			 -0.21962
	54.25			  9.76671			  0.57415			 -0.10905
	54.50			  9.68242			  0.54079			 -0.01873
	54.75			  9.77906			  0.42706			 -0.24286
	55.00			  9.97076			  0.37900			 -0.09585
	55.25			  9.95559			  0.10865			 -0.30701
	55.50			  9.83632			  0.10265			 -0.23283
	55.75			  9.68866			  0.25367			 -0.02410
	56.00			  9.74102			  -0.02641			 -0.18034
	56.25			  9.84390			  0.15050			 0.29716
	56.50			  10.09726			  0.10472			 0.51233
	56.75			  10.19060			  0.07799			 0.35856
	57.00			  10.20687			  -0.10804			 0.31186
	57.25			  9.87314			  0.10720			 0.56570
	57.50			  9.92244			  0.41774			 0.48285
	57.75			  9.89785			  0.28454			 0.41594
	58.00			  10.06435			  0.40821			 0.39458
	58.25			  10.24332			  0.10865			 0.64035
	58.50			  10.48505			  -0.04382			 0.63694
	58.75			  10.34523			  0.13538			 0.91290
	59.00			  10.10435			  -0.05065			 0.87707
	59.25			  10.02373			  0.20996			 0.54135
	59.50			  10.17934			  -0.12937			 0.49470
	59.75			  10.28577			  -0.20333			 0.28452
	60.00			  10.25445			  -0.24684			 0.21039
	60.25			  9.90580			  -0.28806			 0.45233
	60.50			  9.60327			  -0.26444			 0.63092
	60.75			  9.69478			  -0.10534			 0.37092
	61.00			  9.89112			  0.03470			 0.51060
	61.25			  9.88892			  0.16997			 0.54825
	61.50			  9.82885			  0.04506			 0.58045
	61.75			  9.98312			  -0.04237			 0.40148
	62.00			  10.12833			  -0.13642			 0.43955
	62.25			  10.24846			  0.08587			 0.42863
	62.50			  10.13212			  0.05749			 0.50827
	62.75			  10.31954			  0.10203			 0.63797
	63.00			  10.44456			  0.26423			 0.76715
	63.25			  10.49019			  0.03822			 0.49801
	63.50			  10.57264			  0.25077			 0.52791
	63.75			  10.24858			  0.18075			 0.77644
	64.00			  10.25874			  0.16417			 0.98997
	64.25			  10.32798			  -0.04299			 0.84287
	64.50			  10.36394			  0.16335			 0.79771
	64.75			  10.51490			  0.57290			 0.74896
	65.00			  10.60408			  0.27459			 0.57172
	65.25			  10.73510			  0.19111			 0.61931
	65.50			  10.62916			  0.29489			 0.53850
	65.75			  10.46536			  0.34565			 0.33145
	66.00			  10.59797			  0.36823			 0.25821
	66.25			  10.28871			  0.03159			 0.27705
	66.50			  10.38376			  -0.18075			 0.37050
	66.75			  10.38902			  -0.29510			 0.20852
	67.00			  10.52188			  -0.13704			 0.31512
	67.25			  10.34021			  0.01543			 0.37951
	67.50			  10.47881			  -0.07365			 0.41342
	67.75			  10.48151			  0.01543			 0.34144
	68.00			  10.49900			  0.15547			 0.07798
	68.25			  10.59185			  0.32555			 0.08022
	68.50			  10.78392			  0.22467			 0.27524
	68.75			  10.90857			  0.31747			 0.18799
	69.00			  10.82172			  0.34710			 0.45719
	69.25			  10.83909			  0.24538			 0.44697
	69.50			  10.66758			  0.26071			 0.20040
	69.75			  10.88117			  0.43618			 0.18841
	70.00			  10.85010			  0.44426			 0.30533
	70.25			  10.95579			  0.16438			 0.16658
	70.50			  10.82343			  0.27376			 0.20208
	70.75			  10.51466			  -0.12005			 0.27370
	71.00			  10.55870			  -0.10016			 0.46498
	71.25			  10.48089			  -0.01979			 0.40871
	71.50			  10.46976			  0.31002			 0.34983
	71.75			  10.58378			  0.23585			 0.25079
	72.00			  10.61106			  0.11508			 0.36770
	72.25			  10.49631			  0.17370			 0.34092
	72.50			  10.18448			  0.16210			 0.14838
	72.75			  10.30840			  0.22715			 -0.19070
	73.00			  10.15169			  0.16086			 -0.38300
	73.25			  9.85540			  -0.10493			 -0.29795
	73.50			  9.89210			  -0.03739			 -0.53486
	73.75			  9.89907			  0.02890			 -0.21122
	74.00			  9.80353			  0.07012			 0.03795
	74.25			  9.88635			  -0.01979			 -0.23241
	74.50			  9.68254			  -0.17909			 -0.25592
	74.75			  9.74750			  0.10285			 -0.32119
	75.00			  9.93235			  0.41401			 -0.35501
	75.25			  10.06068			  0.25367			 -0.17871
	75.50			  10.05786			  0.08027			 -0.03431
	75.75			  10.07854			  -0.04402			 0.14927
	76.00			  10.07132			  0.18468			 0.01103
	76.25			  10.07034			  0.12709			 -0.00819
	76.50			  9.88048			  0.10140			 0.12865
	76.75			  10.03535			  -0.39206			 -0.00501
	77.00			  9.99890			  -0.45296			 0.05484
	77.25			  10.11842			  -0.20872			 -0.07462
	77.50			  10.07536			  -0.28785			 -0.10611
	77.75			  10.29580			  -0.42520			 -0.18720
	78.00			  10.05664			  -0.57415			 -0.17129
	78.25			  10.12209			  -0.51428			 -0.50104
	78.50			  10.22473			  -0.30132			 -0.41762
	78.75			  10.17176			  -0.23358			 -0.31881
	79.00			  10.33886			  -0.31499			 0.03585
	79.25			  10.59687			  -0.27604			 0.14283
	79.50			  10.37483			  -0.21742			 -0.28974
	79.75			  10.59307			  -0.20209			 -0.09221
	80.00			  10.84912			  -0.16998			 -0.14558
	80.25			  10.76116			  -0.11135			 -0.02550
	80.50			  10.72715			  -0.45275			 -0.02032
	80.75			  10.96399			  -0.18220			 -0.35114
	81.00			  10.97989			  0.02703			 -0.20003
	81.25			  10.95420			  0.19463			 -0.16028
	81.50			  10.79089			  -0.00466			 -0.09151
	81.75			  10.50353			  -0.37776			 -0.08153
	82.00			  10.69865			  -0.04174			 0.32399
	82.25			  10.73143			  -0.04092			 0.02200
	82.50			  10.61632			  -0.04382			 0.28508
	82.75			  10.54304			  0.06598			 0.21403
	83.00			  10.57595			  0.19773			 -0.01477
	83.25			  10.51490			  -0.12875			 -0.17679
	83.50			  10.24210			  -0.36740			 -0.06790
	83.75			  10.25458			  -0.16293			 -0.06898
	84.00			  10.14521			  -0.33136			 -0.11199
	84.25			  10.16772			  -0.51283			 -0.00585
	84.50			  9.94446			  -0.59673			 -0.00520
	84.75			  9.90287			  -0.50102			 0.03035
	85.00			  10.02973			  -0.85030			 -0.15939
	85.25			  9.89736			  -0.93130			 -0.17260
	85.50			  10.19500			  -0.52236			 -0.05232
	85.75			  9.98691			  -0.51345			 -0.19858
	86.00			  9.82812			  -0.23958			 -0.14148
	86.25			  9.81063			  -0.29759			 -0.05983
	86.50			  9.75925			  -0.42230			 0.21188
	86.75			  9.44681			  -0.17143			 0.12566
	87.00			  9.67704			  -0.21638			 0.11694
	87.25			  9.93345			  -0.17495			 0.25727
	87.50			  10.00086			  0.03118			 0.21491
	87.75			  10.04355			  0.24828			 0.52815
	88.00			  10.08992			  0.12813			 0.24645
	88.25			  10.11573			  0.24994			 0.16285
	88.50			  9.94324			  0.12316			 0.32772
	88.75			  9.95204			  -0.17578			 -0.01976
	89.00			  9.73319			  -0.22633			 -0.04117
	89.25			  9.79790			  -0.30049			 0.02937
	89.50			  9.80573			  -0.53520			 -0.11904
	89.75			  9.67227			  -0.17205			 -0.11596
	90.00			  9.95229			  -0.23171			 -0.03702
	90.25			  9.91155			  -0.39537			 0.08517
	90.50			  9.98300			  -0.49812			 0.08923
	90.75			  9.99939			  -0.53251			 0.06464
	91.00			  10.18203			  -0.35249			 0.03385
	91.25			  10.05419			  -0.43618			 -0.44174
	91.50			  9.96905			  -0.23958			 -0.21183
	91.75			  9.65282			  -0.39247			 -0.03487
	92.00			  9.65991			  -0.61848			 -0.02302
	92.25			  9.87803			  -0.51387			 -0.04817
	92.50			  9.95792			  -0.18407			 0.03277
	92.75			  10.00306			  -0.46518			 0.03049
	93.00			  9.91853			  -0.40386			 0.08876
	93.25			  9.83681			  -0.74382			 0.30048
	93.50			  9.92611			  -0.52547			 0.29898
	93.75			  9.87571			  -0.12357			 0.17078
	94.00			  9.89540			  -0.38460			 -0.03021
	94.25			  10.06753			  -0.38398			 0.12002
	94.50			  10.21066			  -0.34275			 0.24911
	94.75			  10.38290			  -0.47741			 0.09949
	95.00			  10.27904			  -0.64500			 -0.04966
	95.25			  10.08686			  -0.54432			 0.03333
	95.50			  9.89871			  -0.27770			 -0.07635
	95.75			  9.82849			  -0.27480			 -0.12450
	96.00			  9.75240			  -0.12855			 0.09426
	96.25			  9.79203			  -0.23296			 0.12366
	96.50			  9.74469			  0.00155			 -0.10775
	96.75			  9.70958			  -0.11239			 0.07994
	97.00			  10.05970			  -0.00466			 0.04187
	97.25			  10.17530			  -0.34834			 0.07402
	97.50			  10.08331			  -0.14325			 -0.00884
	97.75			  9.94067			  -0.08732			 0.14526
	98.00			  10.18729			  0.19587			 -0.08867
	98.25			  10.38034			  0.16355			 0.06903
	98.50			  10.34180			  0.23212			 0.02848
	98.75			  10.42156			  0.25284			 -0.13243
	99.00			  10.48823			  0.06536			 -0.04747
	99.25			  10.39416			  0.27045			 0.32828
	99.50			  10.47833			  0.17101			 0.41464
	99.75			  10.50035			  0.14698			 0.32348
	100.00			  10.27134			  -0.06329			 0.21734
	100.25			  10.43575			  -0.05645			 0.08876
	100.50			  10.29972			  -0.10141			 0.19331
	100.75			  10.16062			  0.02579			 0.18473
	101.00			  10.06985			  -0.22135			 0.05652
	101.25			  10.13029			  -0.22322			 -0.00478
	101.50			  10.25433			  -0.06743			 0.07719
	101.75			  10.27232			  0.07074			 -0.18071
	102.00			  10.18827			  -0.11839			 0.07252
	102.25			  10.31122			  -0.02310			 0.01220
	102.50			  10.39979			  -0.25181			 0.01052
	102.75			  10.16894			  -0.33633			 0.17334
	103.00			  10.29397			  -0.59818			 -0.04462
	103.25			  10.24822			  -0.58347			 -0.05722
	103.50			  10.04563			  -0.61040			 -0.07220
	103.75			  10.08759			  -0.60543			 -0.03679
	104.00			  10.32345			  -0.54308			 -0.03240
	104.25			  10.51711			  -0.68788			 0.00441
	104.50			  10.32908			  -0.68105			 -0.04355
	104.75			  10.19072			  -0.66344			 -0.26973
	105.00			  10.30363			  -0.51697			 -0.17712
	105.25			  10.47196			  -0.29904			 -0.07136
	105.50			  10.42792			  -0.27066			 -0.00408
	105.75			  10.40297			  -0.28267			 0.14432
	106.00			  10.79138			  -0.32058			 0.15347
	106.25			  10.62721			  -0.34172			 0.07504
	106.50			  10.53533			  -0.13642			 0.20964
	106.75			  10.67822			  -0.19629			 0.18286
	107.00			  10.64201			  -0.16936			 0.26404
	107.25			  10.44481			  -0.67670			 -0.01411
	107.50			  10.35342			  -0.71295			 0.00320
	107.75			  10.40676			  -0.56379			 0.27580
	108.00			  10.59148			  -0.40055			 0.09604
	108.25			  10.39869			  -0.36492			 0.26422
	108.50			  10.52677			  -0.24891			 -0.11129
	108.75			  10.38058			  -0.31251			 0.02386
	109.00			  10.06349			  -0.31789			 0.41725
	109.25			  10.19989			  -0.23026			 0.10593
	109.50			  10.14692			  -0.14035			 0.13131
	109.75			  9.89247			  0.16562			 0.13457
	110.00			  10.09652			  0.22591			 0.43647
	110.25			  10.16429			  0.37486			 0.47883
	110.50			  9.98826			  0.53313			 0.50118
	110.75			  10.04649			  0.73511			 0.18790
	111.00			  10.15010			  0.96589			 0.13565
	111.25			  10.19635			  0.92653			 0.09641
	111.50			  10.16564			  0.89836			 0.10999
	111.75			  10.32553			  0.97148			 0.33901
	112.00			  10.21678			  0.94041			 -0.14124
	112.25			  10.28333			  0.90333			 0.08493
	112.50			  10.48836			  0.92197			 0.10737
	112.75			  10.37630			  0.60191			 0.13602
	113.00			  10.49973			  0.47367			 0.14264
	113.25			  10.62684			  0.31416			 0.13747
	113.50			  10.54243			  0.27397			 0.06277
	113.75			  10.79541			  0.45109			 0.25102
	114.00			  10.63944			  0.04506			 0.31708
	114.25			  10.66146			  -0.05625			 0.34993
	114.50			  10.74599			  0.10099			 0.47608
	114.75			  10.71834			  -0.20002			 0.44524
	115.00			  10.90099			  0.00507			 0.84833
	115.25			  10.93512			  0.07509			 0.87324
	115.50			  10.70929			  0.11549			 0.68962
	115.75			  10.66562			  0.09477			 0.37825
	116.00			  10.79517			  0.02268			 0.30696
	116.25			  10.82942			  0.07924			 0.28195
	116.50			  10.97463			  0.20602			 0.27640
	116.75			  11.10100			  0.46062			 0.13821
	117.00			  11.25221			  0.46684			 0.00870
	117.25			  11.31546			  0.27045			 -0.02354
	117.50			  11.17245			  0.16190			 0.27775
	117.75			  11.12217			  0.30857			 0.41356
	118.00			  11.27239			  0.01647			 0.20092
	118.25			  11.27166			  -0.03284			 0.21421
	118.50			  11.25099			  -0.05894			 0.16271
	118.75			  11.23043			  -0.24808			 0.20120
	119.00			  11.34775			  0.04381			 0.20348
	119.25			  11.42861			  0.17578			 0.12226
	119.50			  11.44146			  0.09374			 0.41991
	119.75			  11.44513			  0.11839			 0.42784
	120.00			  11.72393			  0.18530			 0.23315
	120.25			  11.71011			  0.21016			 0.18781
	120.50			  11.63903			  0.13621			 -0.08643
	120.75			  11.74717			  -0.17764			 -0.21463
	121.00			  11.55181			  -0.48611			 -0.09482
	121.25			  11.56098			  -0.51490			 -0.05563
	121.50			  11.51865			  -0.47326			 -0.06954
	121.75			  11.63830			  -0.41277			 -0.14330
	122.00			  11.69310			  0.09457			 -0.15006
	122.25			  11.74925			  -0.02165			 -0.06524
	122.50			  11.73274			  0.08525			 -0.06856
	122.75			  11.64270			  0.33778			 -0.14927
	123.00			  11.73665			  0.22342			 -0.25886
	123.25			  11.62484			  0.45068			 -0.14554
	123.50			  11.75586			  0.42126			 -0.09258
	123.75			  11.21135			  0.24662			 -0.18925
	124.00			  11.33674			  0.21369			 -0.21374
	124.25			  11.54434			  0.25367			 -0.26422
	124.50			  11.39204			  0.14574			 -0.44142
	124.75			  11.28255			  0.25243			 -0.24496
	125.00			  11.22530			  0.26133			 -0.21067
	125.25			  11.32121			  0.25491			 -0.12300
	125.50			  11.40341			  0.35953			 -0.31176
	125.75			  11.15581			  0.06702			 -0.28834
	126.00			  11.30408			  0.11528			 -0.27491
	126.25			  11.11018			  0.15630			 -0.02736
	126.50			  10.96558			  0.25615			 0.03968
	126.75			  11.18909			  0.37237			 -0.12347
	127.00			  10.95359			  0.54701			 -0.23772
	127.25			  11.07996			  0.92322			 -0.54373
	127.50			  11.02895			  1.09889			 -0.44818
	127.75			  10.70366			  1.08605			 -0.42943
	128.00			  10.75651			  1.02618			 -0.45793
	128.25			  10.56053			  0.98889			 -0.43255
	128.50			  10.72250			  0.67711			 -0.39257
	128.75			  10.86637			  0.66633			 0.06422
	129.00			  10.79933			  0.27956			 0.21356
	129.25			  10.85988			  -0.03698			 -0.02517
	129.50			  10.72324			  0.08877			 0.03180
	129.75			  10.67492			  0.28060			 -0.07495
	130.00			  10.79566			  0.39620			 0.04327
	130.25			  10.57105			  0.44467			 -0.12580
	130.50			  10.49105			  0.46601			 -0.12412
	130.75			  10.25030			  0.46891			 -0.17633
	131.00			  10.30314			  0.39475			 -0.34783
	131.25			  10.30229			  0.31105			 -0.20320
	131.50			  10.32724			  0.16293			 -0.31391
	131.75			  10.40211			  0.09353			 -0.24561
	132.00			  10.42462			  0.01315			 -0.40115
	132.25			  10.43649			  0.26320			 -0.12617
	132.50			  10.31843			  0.24683			 -0.08003
	132.75			  10.56690			  0.18883			 0.27594
	133.00			  10.53362			  0.21969			 0.18127
	133.25			  10.59515			  0.21016			 0.02009
	133.50			  11.01390			  0.30235			 0.21603
	133.75			  10.95433			  0.18738			 -0.10523
	134.00			  10.69290			  0.07820			 -0.07033
	134.25			  10.68311			  -0.07572			 0.11162
	134.50			  10.60800			  -0.15071			 0.14409
	134.75			  10.55160			  0.01999			 0.31904
	135.00			  10.63198			  -0.08836			 0.10635
	135.25			  10.83664			  -0.08856			 -0.11400
	135.50			  10.69865			  -0.05935			 -0.21855
	135.75			  10.72776			  0.11342			 -0.31018
	136.00			  10.41973			  -0.07572			 -0.36080
	136.25			  10.39832			  0.26320			 -0.32254
	136.50			  10.27329			  0.16956			 -0.60928
	136.75			  10.36394			  -0.17806			 -0.39220
	137.00			  10.15989			  -0.11197			 -0.40946
	137.25			  10.25470			  0.27190			 -0.22396
	137.50			  10.41679			  0.13289			 -0.21099
	137.75			  10.54573			  0.11839			 -0.06954
	138.00			  10.44835			  -0.03097			 -0.26534
	138.25			  10.77278			  -0.16708			 -0.30416
	138.50			  10.71296			  -0.02455			 -0.12566
	138.75			  10.38315			  0.17826			 -0.06100
	139.00			  10.47857			  0.06598			 -0.08801
	139.25			  10.19635			  -0.06764			 -0.26908
	139.50			  10.18534			  -0.28951			 -0.34111
	139.75			  10.48518			  -0.21825			 -0.39733
	140.00			  10.32896			  -0.20395			 -0.17432
	140.25			  10.36602			  -0.39019			 -0.23189
	140.50			  10.46732			  -0.44426			 -0.32660
	140.75			  10.21433			  -0.06888			 -0.33145
	141.00			  10.35929			  -0.15858			 -0.12095
	141.25			  10.12319			  -0.20830			 -0.27332
	141.50			  10.18362			  -0.49087			 -0.21183
	141.75			  10.29372			  -0.60005			 -0.14199
	142.00			  10.00232			  -0.51718			 -0.16928
	142.25			  9.90996			  -0.30795			 -0.06413
	142.50			  9.93688			  -0.31665			 -0.09618
	142.75			  10.09982			  -0.32349			 -0.37316
	143.00			  10.06973			  -0.31023			 -0.42037
	143.25			  10.44334			  -0.51490			 -0.31503
	143.50			  10.36125			  -0.87661			 -0.35483
	143.75			  10.49154			  -0.92405			 -0.35637
	144.00			  10.57815			  -0.81073			 -0.05144
	144.25			  10.66599			  -0.47078			 0.04383
	144.50			  10.69706			  -0.39371			 -0.05353
	144.75			  10.88374			  -0.40200			 0.05764
	145.00			  10.58451			  -0.66634			 -0.04276
	145.25			  10.54267			  -0.65784			 -0.28545
	145.50			  10.88851			  -0.46871			 -0.20782
	145.75			  10.62146			  -0.23171			 0.01514
	146.00			  10.43722			  -0.12171			 -0.14222
	146.25			  10.33140			  0.14594			 -0.08624
	146.50			  10.31109			  0.00735			 -0.35944
	146.75			  10.27782			  -0.15195			 -0.31419
	147.00			  10.12503			  -0.10949			 -0.61249
	147.25			  10.01468			  -0.06702			 -0.54802
	147.50			  9.70542			  -0.01709			 -0.67049
	147.75			  9.65636			  0.01150			 -0.28261
	148.00			  9.85797			  0.18800			 -0.12575
	148.25			  9.83093			  0.01502			 -0.07070
	148.50			  9.65759			  -0.09188			 -0.18902
	148.75			  9.73759			  0.30007			 -0.45387
	149.00			  9.92892			  0.02496			 -0.44575
	149.25			  10.08233			  -0.06536			 -0.04458
	149.50			  10.17665			  -0.06619			 -0.18701
	149.75			  10.26803			  -0.10472			 -0.01173
	150.00			  10.40860			  -0.13435			 -0.02050
	150.25			  10.28504			  -0.40594			 -0.19480
	150.50			  10.17861			  -0.55530			 -0.22443
	150.75			  10.39379			  -0.64251			 -0.28004
	151.00			  10.44175			  -0.48031			 0.10425
	151.25			  10.30767			  -0.61745			 0.19602
	151.50			  10.20711			  -0.57622			 0.08951
	151.75			  10.22424			  -0.19235			 -0.08377
	152.00			  10.39685			  -0.30588			 -0.25111
	152.25			  10.53117			  -0.23668			 -0.34979
	152.50			  10.70733			  -0.16956			 -0.29002
	152.75			  10.58512			  -0.25346			 -0.09674
	153.00			  10.67920			  -0.45275			 0.08255
	153.25			  10.63185			  -0.50309			 -0.14404
	153.50			  10.25543			  -0.54287			 0.07761
	153.75			  10.22216			  -0.52630			 0.20894
	154.00			  10.34657			  -0.73926			 0.44711
	154.25			  10.22179			  -0.68063			 0.46148
	154.50			  10.21506			  -0.55468			 0.37512
	154.75			  10.44346			  -0.81032			 0.12720
	155.00			  10.68544			  -0.91597			 0.22564
	155.25			  10.78771			  -1.05477			 0.03040
	155.50			  10.59418			  -1.19626			 0.02032
	155.75			  10.67345			  -1.14985			 -0.20628
	156.00			  10.52604			  -1.09703			 -0.41394
	156.25			  10.49398			  -0.99552			 -0.24342
	156.50			  10.54842			  -1.31268			 -0.43778
	156.75			  10.51980			  -1.36137			 -0.49642
	157.00			  10.32504			  -1.25551			 -0.26296
	157.25			  9.92293			  -1.32035			 -0.14320
	157.50			  9.74555			  -1.30025			 -0.33756
	157.75			  9.77075			  -1.26027			 -0.30584
	158.00			  9.70004			  -1.27788			 -0.42504
	158.25			  9.68988			  -1.33651			 -0.39784
	158.50			  9.94752			  -1.05932			 -0.18766
	158.75			  9.92782			  -0.99200			 -0.01010
	159.00			  9.98226			  -0.99220			 -0.26642
	159.25			  9.97370			  -1.13142			 -0.29996
	159.50			  9.79546			  -1.39182			 0.02218
	159.75			  10.01664			  -1.36157			 -0.22335
	160.00			  9.83962			  -1.31082			 -0.19602
	160.25			  9.96073			  -1.17326			 -0.34176
	160.50			  9.96146			  -1.08211			 -0.43759
	160.75			  10.32590			  -0.67276			 -0.34405
	161.00			  10.41777			  -0.76930			 -0.10024
	161.25			  10.60237			  -1.17616			 0.02344
	161.50			  10.40578			  -1.18051			 0.17563
	161.75			  10.24124			  -1.04462			 0.32488
	162.00			  10.44346			  -1.07072			 0.24836
	162.25			  10.13322			  -1.14820			 0.35399
	162.50			  10.44236			  -0.99800			 0.30393
	162.75			  10.53386			  -0.66882			 0.05965
	163.00			  10.56176			  -0.62346			 0.00838
	163.25			  10.35881			  -0.66924			 0.15300
	163.50			  10.47343			  -0.73553			 -0.04896
	163.75			  10.48041			  -0.70301			 0.07136
	164.00			  10.49154			  -0.75293			 0.26381
	164.25			  10.19818			  -0.69223			 0.18151
	164.50			  10.04269			  -0.53148			 0.32823
	164.75			  9.95767			  -0.50620			 0.63335
	165.00			  9.77442			  -0.66199			 0.70944
	165.25			  10.06361			  -0.81777			 0.55208
	165.50			  10.08050			  -0.77365			 0.69498
	165.75			  9.95914			  -0.78297			 1.04502
	166.00			  10.02226			  -0.75169			 1.01601