--------------TurbSim v2.00.* User Time Series Input File-----------------------
     Time series input from low-res turbsim run
--------------------------------------------------------------------------------
          3 nComp - Number of velocity components in the file
          1 nPoints - Number of time series points contained in this file (-)
          1 RefPtID - Index of the reference point (1-nPoints)
     Pointyi Pointzi ! nPoints listed in order of increasing height
       (m)     (m)
       3.81190   94.00000
--------Time Series-------------------------------------------------------------
Elapsed Time         Point01u             Point01v           Point01w
         (s)            (m/s)                (m/s)              (m/s)
	0.00			  10.14550			  0.18106			 0.43770
	0.25			  10.18535			  0.37948			 0.20338
	0.50			  9.96100			  0.36872			 0.20956
	0.75			  10.09518			  0.37948			 -0.08167
	1.00			  10.17990			  0.56894			 -0.10465
	1.25			  10.43292			  0.42388			 0.15848
	1.50			  10.62831			  0.52096			 -0.01367
	1.75			  10.44883			  0.48172			 0.09800
	2.00			  10.33601			  0.43127			 0.23068
	2.25			  10.24699			  0.43486			 0.14594
	2.50			  10.55377			  0.69360			 0.08062
	2.75			  10.49313			  0.53912			 -0.27354
	3.00			  10.25631			  0.19384			 -0.36859
	3.25			  10.03225			  -0.24741			 -0.17171
	3.50			  10.06493			  -0.14158			 -0.09240
	3.75			  10.11812			  -0.07723			 -0.01764
	4.00			  9.99641			  -0.02791			 0.19347
	4.25			  10.22721			  0.05460			 0.08430
	4.50			  10.28054			  -0.25189			 -0.22239
	4.75			  10.45758			  -0.49897			 -0.22729
	5.00			  10.29602			  -0.56467			 0.16005
	5.25			  10.13948			  -0.50099			 0.00604
	5.50			  10.25545			  -0.88708			 -0.29564
	5.75			  10.31580			  -0.60099			 -0.32917
	6.00			  10.46990			  -0.38485			 -0.32742
	6.25			  10.29788			  -0.21445			 -0.31366
	6.50			  10.28957			  -0.38126			 -0.33086
	6.75			  10.05576			  -0.47678			 -0.30923
	7.00			  10.20642			  -0.54897			 -0.10133
	7.25			  10.06823			  -0.19831			 -0.11806
	7.50			  9.80876			  -0.37162			 -0.32742
	7.75			  9.56449			  -0.54606			 -0.37792
	8.00			  9.21270			  -0.27431			 -0.38230
	8.25			  9.26789			  -0.20616			 -0.56011
	8.50			  9.38387			  -0.35010			 -0.48605
	8.75			  9.36193			  -0.39427			 -0.23750
	9.00			  9.13214			  -0.12230			 -0.37571
	9.25			  9.25772			  -0.06580			 -0.50756
	9.50			  9.26331			  0.16648			 -0.74515
	9.75			  9.15293			  0.27881			 -0.57545
	10.00			  9.21600			  0.16379			 -0.55550
	10.25			  9.35075			  -0.22252			 -0.27459
	10.50			  9.29183			  -0.65547			 0.00545
	10.75			  9.75701			  -0.33709			 -0.02703
	11.00			  9.89621			  -0.01984			 -0.26356
	11.25			  9.52579			  -0.26647			 -0.05479
	11.50			  9.55474			  -0.03217			 -0.08185
	11.75			  9.56535			  -0.26445			 0.03531
	12.00			  9.69523			  -0.19293			 0.28818
	12.25			  9.66254			  -0.59292			 0.13025
	12.50			  9.66125			  -0.55166			 0.14221
	12.75			  9.65538			  -0.17925			 0.18420
	13.00			  9.46873			  -0.38620			 0.28584
	13.25			  9.23578			  -0.35301			 -0.12903
	13.50			  9.39935			  -0.48395			 -0.11911
	13.75			  9.66211			  -0.51848			 -0.45706
	14.00			  9.62699			  -0.26647			 -0.58623
	14.25			  9.68534			  -0.16938			 -0.72485
	14.50			  9.51346			  -0.34606			 -0.64537
	14.75			  9.43848			  -0.29472			 -0.28858
	15.00			  9.42272			  -0.04428			 -0.22881
	15.25			  9.70440			  0.11133			 -0.27138
	15.50			  9.53969			  -0.25257			 -0.10063
	15.75			  9.60492			  -0.25279			 -0.31535
	16.00			  9.21887			  -0.21826			 -0.20402
	16.25			  8.97374			  -0.44404			 -0.30100
	16.50			  9.03882			  -0.35503			 -0.32894
	16.75			  9.15221			  -0.07880			 -0.50809
	17.00			  9.57940			  0.06110			 -0.37635
	17.25			  9.53109			  -0.02993			 -0.19632
	17.50			  9.60821			  -0.00930			 -0.14792
	17.75			  9.47891			  -0.06759			 -0.33279
	18.00			  9.55890			  -0.09091			 -0.03263
	18.25			  9.62513			  0.02545			 -0.05665
	18.50			  9.59503			  -0.08239			 0.04097
	18.75			  9.73881			  -0.13889			 -0.13048
	19.00			  9.65509			  0.09675			 -0.03770
	19.25			  9.66527			  -0.06602			 -0.22070
	19.50			  9.48335			  -0.29315			 0.07543
	19.75			  9.72576			  0.19967			 0.39863
	20.00			  9.89019			  0.17029			 0.05473
	20.25			  9.53797			  0.07657			 -0.15568
	20.50			  9.16282			  0.72678			 -0.48669
	20.75			  9.19192			  0.61759			 -0.41420
	21.00			  8.85877			  0.70773			 0.03117
	21.25			  9.16081			  0.76781			 -0.29698
	21.50			  9.36007			  0.80750			 -0.17317
	21.75			  9.26445			  0.47230			 -0.09328
	22.00			  9.51761			  0.86624			 -0.47613
	22.25			  9.57066			  0.64069			 -0.34888
	22.50			  9.41110			  0.78014			 0.01047
	22.75			  9.85922			  1.03350			 -0.14635
	23.00			  9.78325			  1.01915			 -0.00370
	23.25			  9.63588			  0.63620			 -0.07293
	23.50			  9.68419			  0.46401			 0.12693
	23.75			  9.75974			  0.52096			 0.11223
	24.00			  9.59144			  0.75279			 0.30672
	24.25			  9.46715			  0.46222			 0.19638
	24.50			  9.58427			  0.25796			 0.19621
	24.75			  9.74655			  0.67791			 0.35664
	25.00			  9.20195			  0.37791			 0.41163
	25.25			  8.77763			  0.40414			 0.58175
	25.50			  8.64575			  0.32388			 0.40703
	25.75			  8.62080			  0.21446			 0.41986
	26.00			  8.38843			  0.55100			 0.69511
	26.25			  8.40807			  0.89965			 0.62694
	26.50			  8.61478			  0.65930			 1.03738
	26.75			  8.72043			  0.68643			 1.16970
	27.00			  8.76071			  0.55593			 1.00286
	27.25			  8.78408			  0.54248			 0.81554
	27.50			  9.01617			  0.70548			 0.51270
	27.75			  9.23005			  0.82902			 0.64566
	28.00			  9.30044			  0.49786			 0.88599
	28.25			  9.14590			  0.60907			 0.62461
	28.50			  9.20109			  0.68172			 0.27080
	28.75			  8.97703			  0.82611			 0.35005
	29.00			  8.98993			  0.88283			 0.30579
	29.25			  9.22030			  0.45280			 0.70806
	29.50			  9.03796			  0.46670			 0.72048
	29.75			  9.37039			  0.53015			 0.54285
	30.00			  9.55833			  0.30437			 0.60420
	30.25			  9.26632			  0.56445			 0.42102
	30.50			  9.04255			  0.67432			 0.51515
	30.75			  8.80573			  0.48486			 0.24905
	31.00			  8.64474			  0.53441			 -0.07415
	31.25			  8.58525			  0.57297			 -0.15976
	31.50			  8.54855			  0.08846			 0.07275
	31.75			  8.76616			  -0.11266			 0.26234
	32.00			  9.13787			  -0.19741			 0.48826
	32.25			  9.23593			  -0.13575			 0.37402
	32.50			  9.36738			  0.07702			 0.37775
	32.75			  9.36365			  0.37634			 0.28946
	33.00			  9.48006			  0.50751			 0.29687
	33.25			  9.61839			  0.34069			 0.25534
	33.50			  9.72376			  0.73710			 0.22764
	33.75			  9.76232			  0.79629			 0.14629
	34.00			  9.45282			  0.65324			 0.36860
	34.25			  9.18919			  0.76109			 0.34002
	34.50			  9.08225			  0.44136			 0.29407
	34.75			  9.29069			  0.51872			 0.22286
	35.00			  9.48450			  0.12881			 0.27319
	35.25			  9.58929			  -0.37655			 -0.10681
	35.50			  9.70168			  -0.36893			 -0.09818
	35.75			  9.51489			  -0.07073			 0.19429
	36.00			  9.35090			  -0.19831			 0.15300
	36.25			  9.74970			  -0.16602			 0.21318
	36.50			  9.63488			  -0.47117			 0.22193
	36.75			  9.58241			  -0.33373			 0.54815
	37.00			  9.65810			  -0.16669			 0.53993
	37.25			  9.93420			  -0.59180			 0.66281
	37.50			  9.70340			  -0.38351			 0.97568
	37.75			  9.73135			  -0.13037			 0.99236
	38.00			  9.68978			  -0.28485			 0.92693
	38.25			  9.74239			  -0.44427			 0.95189
	38.50			  9.80045			  -0.25705			 0.47940
	38.75			  9.79830			  -0.62431			 0.54897
	39.00			  9.78153			  -0.25660			 0.22409
	39.25			  9.83184			  -0.05661			 0.42435
	39.50			  9.60549			  0.03308			 0.36078
	39.75			  9.71745			  -0.34292			 0.17125
	40.00			  9.67473			  -0.29898			 0.17347
	40.25			  9.56693			  -0.46601			 0.31524
	40.50			  9.95728			  -0.35055			 0.20875
	40.75			  10.14234			  -0.60547			 0.13358
	41.00			  10.15123			  -0.34830			 0.44878
	41.25			  10.33229			  -0.30301			 0.26899
	41.50			  10.32053			  -0.25952			 0.52774
	41.75			  10.30835			  -0.39920			 0.48167
	42.00			  10.05934			  -0.73350			 0.54728
	42.25			  10.45786			  -0.38306			 0.85315
	42.50			  10.51377			  -0.34741			 0.71558
	42.75			  10.40325			  -0.41781			 0.08144
	43.00			  10.29602			  -0.68462			 0.14559
	43.25			  10.38475			  -0.58709			 0.55206
	43.50			  10.39278			  -0.93282			 0.93777
	43.75			  10.19696			  -0.78888			 0.67255
	44.00			  10.13718			  -0.68843			 0.49783
	44.25			  10.07898			  -0.68574			 0.44452
	44.50			  10.32598			  -0.50144			 0.42318
	44.75			  10.17202			  -0.73036			 0.71139
	45.00			  10.18134			  -0.75480			 0.65231
	45.25			  10.13933			  -0.88305			 0.73314
	45.50			  9.95498			  -1.06824			 0.64164
	45.75			  9.94065			  -1.21353			 0.32334
	46.00			  10.00874			  -0.80659			 0.16641
	46.25			  9.67831			  -0.87722			 -0.05706
	46.50			  9.84259			  -0.49583			 0.03794
	46.75			  9.98050			  -0.11961			 0.15824
	47.00			  10.34676			  -0.05235			 0.10133
	47.25			  10.16542			  0.15572			 0.10891
	47.50			  10.04142			  0.10886			 0.21802
	47.75			  10.26305			  -0.38956			 0.05526
	48.00			  10.34748			  -0.19920			 -0.21936
	48.25			  10.42389			  -0.60772			 -0.36060
	48.50			  10.51578			  -0.51063			 0.12355
	48.75			  10.68608			  -0.70121			 0.45263
	49.00			  10.75331			  -0.89381			 0.19621
	49.25			  10.93265			  -0.53866			 -0.21656
	49.50			  11.04274			  -0.46332			 -0.06161
	49.75			  10.75589			  -0.34337			 0.57895
	50.00			  10.88090			  -0.43687			 0.33850
	50.25			  10.87430			  -0.35525			 0.20566
	50.50			  10.82499			  -0.16131			 0.34486
	50.75			  10.94942			  -0.51579			 0.25908
	51.00			  10.90770			  -0.36893			 0.14763
	51.25			  10.64307			  -0.55077			 0.12133
	51.50			  10.65999			  -0.42723			 -0.17737
	51.75			  10.51477			  0.13778			 -0.05800
	52.00			  10.56337			  0.21088			 -0.06727
	52.25			  10.88864			  -0.28104			 -0.17702
	52.50			  10.80922			  -0.49583			 0.13638
	52.75			  10.80177			  -0.23777			 0.10051
	53.00			  10.72478			  -0.31445			 0.09509
	53.25			  10.41314			  -0.20616			 0.27494
	53.50			  10.08988			  -0.15638			 0.16962
	53.75			  10.04486			  -0.06647			 0.39309
	54.00			  9.86997			  0.27455			 -0.06190
	54.25			  10.02365			  0.02321			 -0.23680
	54.50			  10.07913			  -0.00840			 -0.20810
	54.75			  10.45356			  0.10482			 -0.39880
	55.00			  10.19495			  -0.05683			 -0.46021
	55.25			  10.40167			  0.06962			 -0.23499
	55.50			  10.19940			  0.25056			 -0.38061
	55.75			  10.40253			  0.46154			 -0.52302
	56.00			  10.40826			  0.52589			 -0.34113
	56.25			  10.20298			  0.35213			 -0.55393
	56.50			  10.23810			  0.69270			 -0.57953
	56.75			  10.42159			  0.38352			 -0.53346
	57.00			  10.39536			  0.30235			 0.06365
	57.25			  10.36081			  0.09989			 0.32241
	57.50			  10.29774			  0.29675			 0.15580
	57.75			  10.10149			  0.43083			 -0.15836
	58.00			  10.09532			  0.43127			 -0.11625
	58.25			  10.07268			  0.18330			 -0.35256
	58.50			  10.20872			  0.07097			 -0.23190
	58.75			  10.22305			  0.34450			 -0.07835
	59.00			  10.05848			  0.24227			 0.01683
	59.25			  9.91957			  0.21020			 -0.18851
	59.50			  9.92402			  0.73059			 -0.53958
	59.75			  9.73207			  0.51961			 -0.39175
	60.00			  9.75028			  0.31894			 -0.27546
	60.25			  9.53697			  0.44069			 -0.35641
	60.50			  9.54571			  0.72409			 -0.31658
	60.75			  9.45898			  0.50056			 -0.88371
	61.00			  9.51833			  0.67320			 -0.56320
	61.25			  9.63918			  0.68912			 -0.37752
	61.50			  9.76647			  0.71737			 0.05899
	61.75			  9.46113			  0.73418			 -0.30089
	62.00			  9.32079			  1.03261			 -0.41292
	62.25			  9.22303			  0.96445			 -0.43770
	62.50			  9.39577			  0.85234			 -0.42819
	62.75			  9.51432			  0.93194			 -0.59778
	63.00			  9.78497			  0.89673			 -0.88103
	63.25			  10.02967			  0.77140			 -1.01230
	63.50			  9.94911			  1.04068			 -0.87846
	63.75			  9.91427			  1.18440			 -0.54914
	64.00			  10.05203			  1.08507			 -0.42143
	64.25			  10.07554			  1.17139			 -0.37081
	64.50			  9.60893			  0.97386			 -0.58973
	64.75			  9.69121			  0.70414			 -0.34223
	65.00			  9.66039			  0.70414			 -0.33903
	65.25			  9.54930			  0.24227			 -0.53923
	65.50			  9.48407			  0.00617			 -0.26648
	65.75			  9.39046			  -0.09517			 -0.03852
	66.00			  9.64376			  -0.15010			 -0.11089
	66.25			  9.37326			  -0.00616			 -0.42825
	66.50			  9.35749			  -0.10840			 -0.52343
	66.75			  9.51962			  0.02075			 -0.45951
	67.00			  9.48894			  0.10034			 -0.27896
	67.25			  9.42515			  0.16245			 -0.35670
	67.50			  9.34645			  0.19227			 -0.35769
	67.75			  9.29614			  0.02456			 -0.23190
	68.00			  9.37498			  0.45952			 -0.28841
	68.25			  9.81908			  0.48934			 -0.28065
	68.50			  9.74569			  0.41177			 -0.08051
	68.75			  9.68405			  0.08958			 0.01951
	69.00			  9.46056			  0.02949			 -0.22268
	69.25			  9.32968			  -0.23934			 -0.26765
	69.50			  9.12526			  -0.03508			 -0.31249
	69.75			  9.44451			  0.05617			 0.05526
	70.00			  9.61710			  0.40235			 -0.04377
	70.25			  9.39390			  0.91064			 -0.28263
	70.50			  9.45468			  1.04808			 -0.39851
	70.75			  9.30087			  0.52724			 -0.09258
	71.00			  9.38544			  0.69158			 -0.19043
	71.25			  9.79113			  0.96691			 0.14839
	71.50			  9.65810			  0.88149			 0.01146
	71.75			  9.26316			  0.85974			 -0.41787
	72.00			  9.20109			  0.71086			 -0.47631
	72.25			  9.04914			  0.92790			 -0.23890
	72.50			  9.17400			  0.86647			 -0.70252
	72.75			  8.83683			  1.01691			 -0.32474
	73.00			  8.93431			  1.18955			 -0.34457
	73.25			  8.65535			  1.03462			 -0.50611
	73.50			  8.68660			  0.61356			 -0.29179
	73.75			  8.77147			  0.79718			 -0.03858
	74.00			  9.08053			  0.81064			 -0.15568
	74.25			  9.45726			  0.90638			 0.09596
	74.50			  9.48923			  0.83822			 0.39665
	74.75			  9.73694			  0.89292			 0.28345
	75.00			  9.55216			  0.77297			 -0.05683
	75.25			  9.31606			  0.64113			 0.03729
	75.50			  9.27033			  0.64270			 -0.19784
	75.75			  9.43676			  0.45728			 -0.24957
	76.00			  9.52206			  0.64158			 0.12220
	76.25			  9.37039			  0.86938			 -0.02190
	76.50			  9.53596			  0.61961			 -0.52115
	76.75			  9.50342			  0.66288			 -0.58851
	77.00			  9.47920			  0.76467			 -0.48080
	77.25			  9.35563			  0.41110			 -0.48546
	77.50			  9.34014			  0.50594			 -0.24228
	77.75			  9.51761			  0.59338			 -0.29092
	78.00			  9.36294			  0.19339			 -0.33967
	78.25			  9.46988			  0.13644			 -0.41589
	78.50			  9.28825			  0.56244			 -0.58344
	78.75			  9.20869			  0.16177			 -0.49205
	79.00			  9.29671			  0.29249			 -0.13527
	79.25			  9.14562			  0.21648			 -0.14944
	79.50			  9.02964			  -0.18844			 -0.48984
	79.75			  9.01473			  0.15863			 -0.39040
	80.00			  8.94865			  0.29563			 -0.22216
	80.25			  8.77405			  0.60481			 -0.02429
	80.50			  8.50927			  0.04967			 -0.09940
	80.75			  8.81490			  0.30347			 -0.02190
	81.00			  8.69735			  0.66759			 0.19394
	81.25			  8.47272			  0.50616			 -0.03770
	81.50			  8.50182			  0.59091			 -0.14460
	81.75			  8.68001			  0.60862			 -0.31022
	82.00			  8.95051			  0.58037			 -0.24794
	82.25			  8.79899			  0.17993			 -0.17562
	82.50			  9.06405			  0.29361			 -0.14565
	82.75			  8.98133			  0.32410			 0.00919
	83.00			  8.76544			  0.18554			 -0.39705
	83.25			  8.95553			  0.22814			 -0.25190
	83.50			  8.92543			  0.24182			 -0.27319
	83.75			  9.10304			  0.54562			 -0.41665
	84.00			  9.13615			  0.55907			 -0.69173
	84.25			  9.51618			  0.41513			 -0.58139
	84.50			  9.67315			  0.52275			 -0.95573
	84.75			  9.58972			  0.51199			 -0.89771
	85.00			  9.45124			  0.71221			 -0.70584
	85.25			  9.27664			  0.99427			 -0.68199
	85.50			  9.32796			  1.35636			 -0.71751
	85.75			  8.87712			  1.35704			 -0.75156
	86.00			  8.72115			  1.16175			 -0.82335
	86.25			  8.62811			  1.15480			 -0.88144
	86.50			  8.82336			  0.68979			 -0.65814
	86.75			  8.86335			  0.39518			 -0.74614
	87.00			  8.87325			  0.41446			 -0.49596
	87.25			  8.83354			  0.56490			 -0.27074
	87.50			  8.98520			  0.83911			 -0.40819
	87.75			  8.96686			  1.13283			 -0.33279
	88.00			  9.34258			  1.51555			 -0.76078
	88.25			  9.17629			  1.43887			 -0.41951
	88.50			  9.18002			  1.61779			 -0.48260
	88.75			  9.21830			  1.90770			 -0.49911
	89.00			  9.09028			  1.73999			 -0.40388
	89.25			  9.11867			  1.50838			 -0.25762
	89.50			  9.19350			  1.57699			 -0.12751
	89.75			  9.60234			  1.63842			 -0.07077
	90.00			  9.74411			  1.47878			 -0.37262
	90.25			  9.49382			  1.47183			 -0.34521
	90.50			  9.36394			  1.93258			 -0.62152
	90.75			  9.02592			  1.88124			 -0.45846
	91.00			  9.17902			  1.74335			 -0.26706
	91.25			  9.13286			  1.51757			 -0.14191
	91.50			  9.29485			  1.86599			 -0.12448
	91.75			  9.14404			  1.86891			 0.04254
	92.00			  8.86378			  1.93012			 -0.01537
	92.25			  9.05416			  1.78035			 0.18775
	92.50			  9.18833			  1.89424			 -0.26123
	92.75			  9.36208			  1.72317			 -0.34859
	93.00			  9.06491			  1.39650			 0.13480
	93.25			  9.21170			  1.02184			 0.18647
	93.50			  9.22991			  0.99539			 0.03304
	93.75			  9.07695			  0.83283			 0.37851
	94.00			  8.92571			  0.93485			 0.52209
	94.25			  8.85131			  1.29246			 0.20886
	94.50			  8.97417			  1.05435			 0.20863
	94.75			  8.95152			  0.70100			 -0.05485
	95.00			  8.88428			  0.78216			 0.07608
	95.25			  9.17228			  0.86041			 0.19370
	95.50			  9.33384			  0.71983			 0.09579
	95.75			  9.28782			  0.96736			 0.13614
	96.00			  9.33799			  0.93463			 0.23837
	96.25			  9.19464			  1.06287			 -0.18285
	96.50			  9.26833			  1.51757			 -0.21061
	96.75			  9.16999			  1.51981			 0.14646
	97.00			  9.11193			  1.22161			 0.29063
	97.25			  9.09057			  0.98149			 0.31745
	97.50			  9.07322			  1.10816			 0.30427
	97.75			  9.04398			  0.85593			 0.40504
	98.00			  8.89030			  1.05503			 0.56233
	98.25			  9.00040			  1.45659			 0.47549
	98.50			  9.01660			  1.44022			 0.21108
	98.75			  9.27363			  1.32722			 0.03694
	99.00			  9.47934			  1.34112			 0.40627
	99.25			  9.56306			  1.16354			 0.27645
	99.50			  9.64620			  0.93283			 0.24992
	99.75			  9.85865			  0.80705			 0.11445
	100.00			  9.97821			  0.79629			 -0.14524
	100.25			  10.14808			  0.75167			 -0.10932
	100.50			  9.84016			  0.59719			 -0.28992
	100.75			  9.80776			  1.06399			 -0.25278
	101.00			  9.85564			  0.94315			 -0.11445
	101.25			  9.76404			  0.63957			 0.01193
	101.50			  9.70455			  0.61131			 -0.08715
	101.75			  9.71716			  0.31805			 -0.05461
	102.00			  9.71716			  0.20415			 -0.06342
	102.25			  9.68691			  0.18958			 0.07316
	102.50			  9.83385			  0.03442			 0.25552
	102.75			  9.86782			  0.03039			 0.33011
	103.00			  9.93678			  0.05662			 0.53748
	103.25			  9.94595			  0.27926			 0.46307
	103.50			  9.98079			  0.62208			 0.52459
	103.75			  10.12514			  0.99135			 0.33396
	104.00			  10.41987			  0.79225			 0.06540
	104.25			  10.32239			  1.00166			 0.17131
	104.50			  9.96659			  1.10615			 -0.09427
	104.75			  9.71716			  1.23238			 -0.00242
	105.00			  9.68706			  1.13059			 -0.28415
	105.25			  9.98724			  1.08978			 -0.14046
	105.50			  9.99154			  0.70234			 -0.28660
	105.75			  10.10249			  0.87364			 -0.33926
	106.00			  10.10206			  0.60907			 0.09135
	106.25			  10.26462			  0.28285			 -0.05187
	106.50			  10.39966			  0.29069			 0.13743
	106.75			  10.26878			  0.53822			 -0.51165
	107.00			  10.19897			  0.50885			 -0.24345
	107.25			  10.45586			  0.23487			 -0.41373
	107.50			  10.42690			  0.55481			 -0.32975
	107.75			  10.36182			  0.59405			 -0.24094
	108.00			  10.39851			  0.55190			 -0.36101
	108.25			  10.64078			  0.64046			 -0.15224
	108.50			  10.61899			  0.60930			 0.26462
	108.75			  10.43894			  0.05752			 0.55008
	109.00			  10.52466			  0.42231			 0.20041
	109.25			  10.81567			  0.53284			 0.24660
	109.50			  10.90025			  0.52208			 0.19656
	109.75			  10.50015			  0.55638			 -0.06499
	110.00			  10.37673			  0.41356			 -0.08336
	110.25			  10.22391			  0.47208			 -0.32830
	110.50			  10.15482			  0.48979			 -0.14920
	110.75			  9.84087			  0.53934			 -0.14559
	111.00			  9.72419			  0.56042			 0.01094
	111.25			  9.80934			  0.43598			 -0.09888
	111.50			  9.94753			  0.83328			 -0.13964
	111.75			  10.16041			  0.81759			 -0.14506
	112.00			  10.06422			  0.74988			 -0.08809
	112.25			  10.11898			  1.04247			 -0.20478
	112.50			  10.34691			  0.77858			 -0.15195
	112.75			  10.12830			  0.46872			 -0.04353
	113.00			  10.19926			  0.62006			 0.08045
	113.25			  10.42231			  0.85570			 0.13084
	113.50			  10.35236			  0.66692			 -0.07928
	113.75			  10.19553			  0.68127			 -0.25283
	114.00			  10.55792			  1.02790			 -0.25464
	114.25			  10.77797			  0.74158			 -0.51555
	114.50			  10.88047			  0.81781			 -0.41420
	114.75			  10.91731			  0.87342			 -0.12162
	115.00			  10.55606			  0.82611			 -0.11381
	115.25			  10.22506			  0.83889			 -0.40971
	115.50			  10.17273			  0.96646			 -0.32311
	115.75			  10.32010			  0.65795			 -0.08068
	116.00			  10.37328			  0.11648			 0.19557
	116.25			  10.39995			  0.16379			 0.08237
	116.50			  9.96573			  0.39988			 -0.06219
	116.75			  10.09231			  0.03330			 0.01210
	117.00			  10.05189			  -0.23530			 0.02097
	117.25			  10.37501			  -0.06670			 0.09894
	117.50			  10.52194			  -0.07028			 0.03345
	117.75			  10.75044			  -0.13956			 0.12121
	118.00			  10.67977			  -0.19001			 0.04709
	118.25			  10.67346			  -0.24337			 -0.36276
	118.50			  10.90426			  -0.65794			 -0.63458
	118.75			  11.06969			  -0.80861			 -0.71832
	119.00			  10.96791			  -0.68574			 -0.30719
	119.25			  11.08718			  -1.02093			 -0.22671
	119.50			  11.20215			  -0.80681			 -0.53153
	119.75			  11.11485			  -0.75592			 -0.40539
	120.00			  11.02382			  -0.95390			 -0.34159
	120.25			  10.82800			  -0.71354			 -0.31185
	120.50			  10.57928			  -0.74314			 -0.20268
	120.75			  10.34246			  -0.86914			 -0.28806
	121.00			  10.16141			  -0.98618			 -0.05607
	121.25			  10.54760			  -0.78798			 -0.17405
	121.50			  10.63906			  -0.74829			 -0.32684
	121.75			  10.96934			  -0.48709			 -0.33640
	122.00			  10.92706			  -0.85614			 -0.04983
	122.25			  11.14939			  -0.84403			 -0.12384
	122.50			  11.20932			  -0.84000			 0.03129
	122.75			  11.29131			  -0.48036			 0.28993
	123.00			  11.13606			  -0.41938			 0.39350
	123.25			  11.23569			  -0.82632			 0.21936
	123.50			  11.43223			  -0.88305			 0.31290
	123.75			  11.35568			  -0.78843			 0.27296
	124.00			  11.35123			  -1.04896			 0.02417
	124.25			  11.35482			  -1.22497			 -0.07526
	124.50			  11.11843			  -0.59516			 -0.18198
	124.75			  11.15671			  -0.32095			 -0.40609
	125.00			  10.86455			  -0.27050			 -0.05456
	125.25			  11.25046			  -0.32454			 -0.11176
	125.50			  11.19369			  -0.11199			 0.08226
	125.75			  11.08933			  -0.23239			 0.19364
	126.00			  10.92749			  0.09204			 -0.02569
	126.25			  10.63161			  0.12747			 0.17836
	126.50			  10.72435			  -0.20660			 0.35577
	126.75			  10.83345			  -0.32364			 0.44015
	127.00			  11.13033			  -0.35929			 0.45537
	127.25			  11.12875			  -0.27701			 0.35781
	127.50			  11.25175			  -0.16064			 0.32282
	127.75			  11.10367			  -0.30122			 0.20968
	128.00			  11.02927			  -0.35660			 0.30083
	128.25			  10.69927			  -0.17252			 0.37571
	128.50			  10.54129			  -0.55413			 0.66514
	128.75			  10.47564			  -0.33126			 0.51421
	129.00			  10.85681			  -0.29786			 0.18600
	129.25			  10.56409			  -0.26871			 0.32422
	129.50			  10.45887			  -0.03867			 -0.02254
	129.75			  10.26606			  -0.39584			 -0.20151
	130.00			  10.42360			  -0.00504			 -0.42114
	130.25			  10.46560			  0.01357			 -0.35541
	130.50			  10.18005			  0.05684			 -0.14915
	130.75			  10.36913			  0.06536			 0.05141
	131.00			  10.34203			  0.12949			 -0.02219
	131.25			  10.08916			  0.01649			 0.01461
	131.50			  10.32110			  -0.01894			 0.09176
	131.75			  10.47306			  -0.15616			 0.26660
	132.00			  10.34633			  -0.27073			 0.36288
	132.25			  10.71016			  -0.32768			 0.43444
	132.50			  10.77481			  -0.46265			 0.33757
	132.75			  10.58975			  -0.89269			 0.11818
	133.00			  10.66343			  -0.86914			 0.00522
	133.25			  11.10567			  -0.68731			 0.12658
	133.50			  10.97780			  -0.73731			 -0.10214
	133.75			  10.89509			  -0.31624			 -0.14261
	134.00			  11.00547			  -0.03889			 -0.25692
	134.25			  10.59777			  0.06491			 -0.10821
	134.50			  10.65383			  0.26558			 -0.00545
	134.75			  10.80535			  0.54674			 0.12710
	135.00			  11.11055			  0.32365			 0.30351
	135.25			  11.37030			  0.37074			 0.12454
	135.50			  11.53071			  0.31760			 0.19429
	135.75			  11.15828			  0.42993			 -0.15025
	136.00			  10.91888			  0.05998			 -0.19294
	136.25			  10.93078			  -0.23732			 -0.18804
	136.50			  11.05636			  0.15886			 -0.18489
	136.75			  11.16746			  0.27074			 0.01012
	137.00			  11.09850			  0.02658			 0.39251
	137.25			  11.15871			  -0.09517			 0.44178
	137.50			  10.65970			  0.17366			 0.68019
	137.75			  10.79632			  0.02478			 -0.03875
	138.00			  10.65784			  -0.06558			 0.08955
	138.25			  10.45987			  -0.15952			 0.01525
	138.50			  10.52782			  -0.13060			 0.07526
	138.75			  10.53255			  -0.24472			 -0.05345
	139.00			  10.54574			  -0.35638			 -0.16174
	139.25			  10.63634			  -0.19741			 0.08838
	139.50			  10.71547			  -0.38059			 -0.04528
	139.75			  11.01020			  0.03084			 0.03939
	140.00			  10.82814			  0.18980			 0.31191
	140.25			  10.82470			  0.15886			 0.15131
	140.50			  10.73210			  0.19630			 -0.15614
	140.75			  10.73984			  -0.04786			 -0.06651
	141.00			  10.72564			  -0.50996			 0.28334
	141.25			  10.58487			  -0.26669			 0.39396
	141.50			  10.94153			  -0.07544			 0.46144
	141.75			  10.81123			  -0.02387			 0.57906
	142.00			  10.48739			  -0.34315			 0.75786
	142.25			  10.62143			  -0.27970			 1.04525
	142.50			  10.43622			  -0.21176			 0.66508
	142.75			  10.36339			  -0.16221			 0.67377
	143.00			  10.16571			  -0.09786			 0.78002
	143.25			  10.08242			  0.24922			 0.42697
	143.50			  9.87944			  0.00169			 0.23172
	143.75			  10.01376			  0.03330			 0.60694
	144.00			  10.17331			  -0.01939			 0.91066
	144.25			  10.09905			  -0.10481			 0.65534
	144.50			  10.13847			  0.03779			 0.65505
	144.75			  10.01605			  -0.01692			 0.58880
	145.00			  10.60423			  -0.18239			 0.53136
	145.25			  10.45356			  0.02971			 0.54932
	145.50			  10.39063			  -0.08463			 0.52827
	145.75			  10.34476			  -0.43844			 0.81087
	146.00			  9.92431			  -0.28799			 0.63633
	146.25			  9.88875			  -0.45189			 0.41426
	146.50			  9.89793			  -0.66108			 0.42534
	146.75			  10.09160			  -0.50682			 0.48272
	147.00			  10.24541			  -0.21535			 0.37011
	147.25			  10.00186			  -0.09629			 0.13836
	147.50			  9.51174			  -0.07006			 -0.13952
	147.75			  9.35692			  -0.05549			 -0.15789
	148.00			  9.41626			  0.29406			 0.05712
	148.25			  9.79916			  0.49450			 -0.13643
	148.50			  9.81607			  0.37769			 0.02056
	148.75			  9.57553			  -0.09786			 -0.07438
	149.00			  9.56678			  -0.33395			 -0.21895
	149.25			  9.75902			  -0.06401			 -0.09905
	149.50			  9.85034			  0.06447			 0.17107
	149.75			  9.81665			  0.14070			 0.17183
	150.00			  9.66254			  0.21536			 0.11264
	150.25			  9.59416			  0.36939			 0.12506
	150.50			  9.97032			  0.28576			 0.02388
	150.75			  10.05949			  0.39540			 -0.10506
	151.00			  9.80790			  0.30280			 -0.17440
	151.25			  9.51919			  -0.09741			 -0.51515
	151.50			  9.55259			  -0.24517			 -0.81309
	151.75			  9.69910			  -0.27656			 -0.32964
	152.00			  9.48120			  -0.14293			 -0.09806
	152.25			  9.21184			  -0.35010			 0.20280
	152.50			  8.99151			  -0.12948			 0.09322
	152.75			  8.87841			  -0.27342			 0.34480
	153.00			  9.12354			  -0.12185			 0.16408
	153.25			  9.43375			  -0.01625			 0.06663
	153.50			  9.77293			  0.13778			 0.25814
	153.75			  9.67344			  -0.21355			 0.28765
	154.00			  10.04415			  -0.45077			 0.12670
	154.25			  10.08687			  -0.68596			 0.07876
	154.50			  9.72189			  -0.75099			 0.07625
	154.75			  9.86811			  -0.40548			 0.04359
	155.00			  9.75687			  -0.51332			 -0.19889
	155.25			  9.78124			  -0.49808			 -0.05730
	155.50			  9.67803			  -0.50682			 -0.25610
	155.75			  9.71788			  -0.39584			 -0.36346
	156.00			  10.09346			  -0.67520			 -0.02615
	156.25			  10.04214			  -0.80367			 0.00452
	156.50			  10.12758			  -0.71601			 0.30089
	156.75			  10.31021			  -0.79336			 0.23143
	157.00			  10.10823			  -0.75390			 0.14530
	157.25			  9.81091			  -0.58507			 0.08891
	157.50			  10.12701			  -0.71601			 -0.34568
	157.75			  10.08658			  -0.68462			 -0.07106
	158.00			  10.23294			  -0.70390			 0.22035
	158.25			  10.17546			  -0.56130			 0.03992
	158.50			  9.68806			  -0.81780			 -0.03123
	158.75			  9.79830			  -1.12340			 -0.11824
	159.00			  9.75429			  -0.95502			 -0.07427
	159.25			  9.63430			  -1.18864			 -0.05613
	159.50			  9.48264			  -1.15277			 0.41840
	159.75			  9.79213			  -1.23909			 0.27016
	160.00			  9.83715			  -1.02273			 0.42563
	160.25			  9.90868			  -0.83506			 0.35798
	160.50			  9.98838			  -0.64157			 0.01449
	160.75			  10.15181			  -0.76646			 0.08512
	161.00			  10.18521			  -1.19716			 0.21067
	161.25			  10.04572			  -1.63572			 0.00534
	161.50			  10.09031			  -1.24649			 0.18163
	161.75			  9.83328			  -1.26331			 -0.06289
	162.00			  9.86410			  -1.15008			 0.05946
	162.25			  9.68734			  -0.87453			 -0.02936
	162.50			  9.65523			  -0.99134			 -0.04435
	162.75			  9.81478			  -0.77587			 0.04196
	163.00			  9.40093			  -0.78103			 0.20006
	163.25			  9.63330			  -0.70995			 -0.03333
	163.50			  9.61853			  -0.88910			 -0.07543
	163.75			  9.34344			  -1.17317			 0.04832
	164.00			  9.54270			  -1.02071			 0.32241
	164.25			  9.48221			  -0.77565			 0.42575
	164.50			  9.59660			  -0.88484			 0.32025
	164.75			  9.67803			  -0.73619			 0.04377
	165.00			  9.89707			  -0.85614			 -0.08739
	165.25			  9.69480			  -0.91825			 -0.39070
	165.50			  9.69093			  -0.76332			 -0.60490
	165.75			  9.69322			  -0.79269			 -0.30462
	166.00			  9.71687			  -0.93887			 -0.06412
	166.25			  9.97964			  -0.61354			 -0.15894
	166.50			  9.94409			  -0.71421			 -0.09246
	166.75			  9.96459			  -1.02878			 0.06056
	167.00			  9.69953			  -0.96040			 0.25896