--------------TurbSim v2.00.* User Time Series Input File-----------------------
     Time series input from low-res turbsim run
--------------------------------------------------------------------------------
          3 nComp - Number of velocity components in the file
          1 nPoints - Number of time series points contained in this file (-)
          1 RefPtID - Index of the reference point (1-nPoints)
     Pointyi Pointzi ! nPoints listed in order of increasing height
       (m)     (m)
       -0.56486   94.00000
--------Time Series-------------------------------------------------------------
Elapsed Time         Point01u             Point01v           Point01w
         (s)            (m/s)                (m/s)              (m/s)
	0.00			  10.46039			  -0.01188			 0.09007
	0.25			  10.36958			  -0.11969			 0.20155
	0.50			  10.39906			  -0.04443			 0.20853
	0.75			  10.41844			  0.06110			 0.13658
	1.00			  10.29998			  -0.00400			 0.13800
	1.25			  10.10199			  0.14931			 0.16162
	1.50			  10.12551			  0.04955			 0.23350
	1.75			  10.19344			  -0.01905			 0.09566
	2.00			  10.23690			  0.11764			 0.02279
	2.25			  10.23436			  0.03993			 0.05622
	2.50			  10.35917			  0.18659			 0.05605
	2.75			  10.44577			  0.20374			 0.09800
	3.00			  10.24071			  0.12516			 0.17046
	3.25			  10.14601			  0.15614			 0.11069
	3.50			  10.10056			  0.10923			 -0.03473
	3.75			  10.20226			  0.06390			 -0.04083
	4.00			  10.21219			  0.15841			 0.10517
	4.25			  10.25319			  -0.00505			 0.06829
	4.50			  10.18462			  -0.02028			 0.12661
	4.75			  10.26518			  0.03415			 0.15362
	5.00			  10.13369			  -0.03166			 0.28145
	5.25			  10.27416			  0.03765			 0.29888
	5.50			  10.30205			  0.13251			 0.22338
	5.75			  10.33534			  0.10766			 0.18437
	6.00			  10.37554			  0.08176			 0.03874
	6.25			  10.39620			  0.04728			 -0.03581
	6.50			  10.38356			  0.15351			 -0.00387
	6.75			  10.29959			  0.18659			 0.04595
	7.00			  10.35202			  0.18012			 0.05429
	7.25			  10.35059			  0.18099			 0.05090
	7.50			  10.23809			  0.05498			 0.03681
	7.75			  10.22792			  -0.03498			 -0.03109
	8.00			  10.38936			  -0.06876			 0.03530
	8.25			  10.46182			  -0.02588			 0.07683
	8.50			  10.43235			  -0.08836			 0.07592
	8.75			  10.42845			  -0.21000			 -0.02493
	9.00			  10.46564			  -0.11514			 -0.02731
	9.25			  10.51776			  -0.00995			 -0.07457
	9.50			  10.41781			  0.12936			 0.04753
	9.75			  10.39906			  0.11956			 -0.05787
	10.00			  10.23595			  -0.11707			 0.01244
	10.25			  10.19431			  -0.11829			 0.00050
	10.50			  10.22736			  -0.06316			 0.09225
	10.75			  10.15721			  -0.16765			 0.10022
	11.00			  10.09436			  -0.05511			 0.00948
	11.25			  10.10970			  0.02785			 -0.03498
	11.50			  10.03676			  0.08911			 -0.13555
	11.75			  10.06417			  0.06986			 -0.10266
	12.00			  10.03764			  0.05585			 -0.07081
	12.25			  10.17636			  0.11519			 0.09965
	12.50			  10.28258			  0.12814			 0.00705
	12.75			  10.27313			  0.05078			 0.03729
	13.00			  10.35274			  -0.00523			 0.00600
	13.25			  10.49726			  -0.02728			 -0.01123
	13.50			  10.49456			  0.08228			 -0.02399
	13.75			  10.54612			  0.15141			 0.00169
	14.00			  10.49639			  0.02050			 -0.02804
	14.25			  10.66450			  0.12009			 -0.10879
	14.50			  10.60078			  0.10713			 0.01434
	14.75			  10.43147			  0.00562			 -0.03159
	15.00			  10.41304			  -0.11461			 -0.14087
	15.25			  10.48439			  0.10328			 -0.16973
	15.50			  10.55009			  0.21617			 -0.06939
	15.75			  10.48312			  0.29318			 -0.05991
	16.00			  10.60531			  0.18624			 -0.06179
	16.25			  10.77478			  0.21530			 -0.04087
	16.50			  10.68659			  0.15754			 -0.17617
	16.75			  10.63368			  0.14354			 -0.13466
	17.00			  10.57989			  0.13426			 0.00680
	17.25			  10.57695			  0.11956			 0.17502
	17.50			  10.68413			  -0.09309			 0.08545
	17.75			  10.72330			  -0.16064			 -0.03567
	18.00			  10.70947			  -0.08486			 -0.06880
	18.25			  10.74093			  -0.17815			 0.12586
	18.50			  10.72060			  -0.06806			 0.20054
	18.75			  10.72695			  -0.09064			 0.09454
	19.00			  10.65306			  -0.21368			 0.14329
	19.25			  10.62907			  -0.13229			 0.13869
	19.50			  10.68564			  -0.17797			 0.05424
	19.75			  10.57639			  -0.22085			 -0.06756
	20.00			  10.56861			  -0.18900			 -0.03278
	20.25			  10.50489			  -0.03691			 -0.04117
	20.50			  10.46365			  0.12656			 -0.11461
	20.75			  10.42321			  0.13094			 -0.13065
	21.00			  10.42925			  0.11361			 -0.11766
	21.25			  10.38627			  0.13671			 -0.15688
	21.50			  10.32525			  0.12621			 -0.22778
	21.75			  10.42774			  0.07633			 -0.13461
	22.00			  10.43076			  0.07843			 -0.16829
	22.25			  10.42965			  0.00580			 -0.33513
	22.50			  10.41431			  -0.09379			 -0.26359
	22.75			  10.47183			  -0.13509			 -0.32223
	23.00			  10.42480			  -0.08451			 -0.31719
	23.25			  10.52666			  -0.08486			 -0.20868
	23.50			  10.50489			  -0.11094			 -0.18467
	23.75			  10.44315			  -0.14594			 -0.18556
	24.00			  10.53698			  -0.18112			 -0.11452
	24.25			  10.49416			  -0.34056			 -0.13805
	24.50			  10.54414			  -0.30521			 -0.14795
	24.75			  10.55137			  -0.26618			 -0.03640
	25.00			  10.45960			  -0.30206			 -0.06967
	25.25			  10.47962			  -0.17185			 -0.01201
	25.50			  10.52880			  -0.16100			 0.02325
	25.75			  10.53103			  -0.04303			 -0.05546
	26.00			  10.40478			  0.02558			 -0.17903
	26.25			  10.36076			  -0.05178			 -0.19525
	26.50			  10.37935			  0.02137			 -0.14790
	26.75			  10.27988			  -0.06036			 -0.07326
	27.00			  10.34352			  -0.02886			 -0.11778
	27.25			  10.33772			  -0.02308			 -0.17076
	27.50			  10.43060			  0.03888			 -0.07551
	27.75			  10.55009			  0.14721			 -0.19809
	28.00			  10.46397			  0.12236			 -0.12414
	28.25			  10.42075			  0.11238			 -0.04140
	28.50			  10.41558			  0.18764			 -0.16996
	28.75			  10.39183			  0.19062			 -0.27708
	29.00			  10.33891			  0.20444			 -0.28382
	29.25			  10.24898			  0.22947			 -0.24185
	29.50			  10.21910			  0.36581			 -0.29605
	29.75			  10.23928			  0.44772			 -0.31213
	30.00			  10.19392			  0.31121			 -0.29055
	30.25			  10.03462			  0.23822			 -0.25422
	30.50			  10.13488			  0.18869			 -0.13823
	30.75			  10.15904			  0.26728			 -0.09418
	31.00			  10.11280			  0.24785			 -0.07576
	31.25			  10.11947			  0.19814			 -0.11958
	31.50			  10.09770			  0.30053			 -0.11443
	31.75			  10.15769			  0.21775			 -0.12449
	32.00			  10.19304			  0.30368			 0.00483
	32.25			  10.08022			  0.33938			 -0.02930
	32.50			  10.02469			  0.26465			 -0.10692
	32.75			  9.93618			  0.30473			 -0.18833
	33.00			  9.98170			  0.27585			 -0.21763
	33.25			  10.04145			  0.26570			 -0.22286
	33.50			  10.06950			  0.29808			 -0.08726
	33.75			  10.06624			  0.17522			 -0.10790
	34.00			  9.93896			  0.13514			 -0.11626
	34.25			  10.00768			  0.03660			 -0.09642
	34.50			  10.02866			  0.01752			 -0.37937
	34.75			  9.97551			  0.06145			 -0.34514
	35.00			  9.91671			  0.17207			 -0.14730
	35.25			  10.04177			  0.24295			 -0.10627
	35.50			  10.07124			  0.22020			 -0.03400
	35.75			  10.00768			  0.07913			 0.04398
	36.00			  9.91401			  0.12131			 -0.01008
	36.25			  9.87738			  -0.02781			 0.14169
	36.50			  9.94547			  0.00405			 0.04719
	36.75			  9.95405			  0.22545			 0.04756
	37.00			  9.95080			  0.32066			 -0.01240
	37.25			  10.08030			  0.27795			 0.01592
	37.50			  10.03207			  0.12884			 0.10797
	37.75			  9.99902			  0.34218			 0.09154
	38.00			  10.12098			  0.41867			 0.14034
	38.25			  9.99052			  0.39994			 0.06364
	38.50			  9.81311			  0.26343			 0.06270
	38.75			  9.77442			  0.32748			 -0.01498
	39.00			  9.76941			  0.27043			 -0.04399
	39.25			  9.67868			  0.08946			 -0.10845
	39.50			  9.66231			  0.12849			 -0.06953
	39.75			  9.57388			  0.17207			 -0.17046
	40.00			  9.73795			  0.07703			 -0.06367
	40.25			  9.94905			  0.11238			 0.11152
	40.50			  9.90901			  0.19604			 0.04222
	40.75			  9.95278			  0.18344			 -0.00841
	41.00			  10.00824			  0.11781			 -0.16025
	41.25			  9.80953			  0.17854			 -0.13759
	41.50			  9.95683			  0.35041			 -0.13665
	41.75			  9.89661			  0.16962			 -0.09287
	42.00			  9.93928			  0.11781			 -0.09519
	42.25			  9.95246			  0.05918			 -0.05858
	42.50			  9.89582			  -0.01223			 -0.02772
	42.75			  9.85847			  0.04833			 -0.04032
	43.00			  9.99831			  0.05270			 0.13378
	43.25			  10.01603			  0.01647			 0.28051
	43.50			  9.98464			  -0.14279			 0.08499
	43.75			  9.95008			  -0.17797			 0.13777
	44.00			  9.84473			  -0.11461			 0.17060
	44.25			  9.88215			  0.02172			 0.21032
	44.50			  9.80008			  -0.07821			 0.20194
	44.75			  9.85776			  -0.13877			 0.10865
	45.00			  9.83559			  -0.28351			 0.09275
	45.25			  9.74200			  -0.27301			 0.13953
	45.50			  9.82217			  -0.30889			 0.20643
	45.75			  9.77616			  -0.34757			 0.06678
	46.00			  9.90694			  -0.45100			 0.05422
	46.25			  9.83853			  -0.40795			 0.03312
	46.50			  9.63927			  -0.35824			 -0.00401
	46.75			  9.54806			  -0.50876			 0.03074
	47.00			  9.65905			  -0.41635			 0.06352
	47.25			  9.65786			  -0.37942			 -0.06330
	47.50			  9.62115			  -0.34354			 -0.03546
	47.75			  9.64729			  -0.26758			 0.12132
	48.00			  9.72253			  -0.39115			 0.27391
	48.25			  9.59057			  -0.44750			 0.13747
	48.50			  9.63228			  -0.34389			 0.23009
	48.75			  9.71952			  -0.25463			 0.22769
	49.00			  9.65651			  -0.15504			 0.26489
	49.25			  9.71530			  -0.18935			 0.10732
	49.50			  9.72778			  -0.18270			 0.02566
	49.75			  9.72937			  -0.08959			 -0.02550
	50.00			  9.73715			  -0.13982			 0.04208
	50.25			  9.77386			  -0.14962			 0.02055
	50.50			  9.65746			  -0.07244			 -0.01799
	50.75			  9.65135			  -0.32096			 0.00190
	51.00			  9.61599			  -0.29996			 -0.04971
	51.25			  9.61377			  -0.22103			 0.01079
	51.50			  9.63887			  -0.18672			 -0.01702
	51.75			  9.59692			  -0.02938			 -0.04202
	52.00			  9.62584			  -0.14927			 0.03489
	52.25			  9.71101			  -0.15609			 0.09307
	52.50			  9.62783			  -0.13439			 0.19158
	52.75			  9.70291			  -0.13859			 0.19896
	53.00			  9.76059			  -0.13037			 0.18448
	53.25			  9.69965			  -0.00138			 0.09216
	53.50			  9.68503			  0.00562			 0.15298
	53.75			  9.66883			  -0.17360			 -0.03796
	54.00			  9.73270			  -0.28421			 -0.00710
	54.25			  9.75114			  -0.25568			 0.04559
	54.50			  9.71228			  -0.39097			 -0.11690
	54.75			  9.82272			  -0.34809			 -0.12430
	55.00			  9.76043			  -0.20265			 -0.19706
	55.25			  9.76393			  0.02575			 -0.22022
	55.50			  9.85712			  -0.06911			 -0.06234
	55.75			  9.95374			  -0.05913			 0.06439
	56.00			  9.86245			  0.02978			 -0.00227
	56.25			  9.82503			  0.13531			 -0.04401
	56.50			  9.89351			  0.08053			 -0.00660
	56.75			  9.71848			  -0.02010			 -0.00575
	57.00			  9.76083			  -0.22820			 -0.03311
	57.25			  9.66231			  -0.26776			 -0.03911
	57.50			  9.60757			  -0.18357			 0.01984
	57.75			  9.60924			  -0.13737			 -0.02665
	58.00			  9.64086			  -0.11164			 -0.02676
	58.25			  9.57611			  -0.08679			 -0.07849
	58.50			  9.67169			  -0.01765			 -0.06092
	58.75			  9.63101			  -0.19285			 0.02556
	59.00			  9.53749			  -0.26671			 0.02898
	59.25			  9.69028			  -0.28928			 -0.11074
	59.50			  9.79531			  -0.30486			 -0.06992
	59.75			  9.82248			  -0.28158			 -0.00965
	60.00			  9.80755			  -0.28911			 0.01015
	60.25			  9.86292			  -0.19442			 -0.00539
	60.50			  9.79031			  -0.15522			 0.08354
	60.75			  9.74661			  -0.11794			 0.13257
	61.00			  9.83694			  -0.03026			 0.14375
	61.25			  9.75233			  -0.13352			 0.04650
	61.50			  9.75749			  -0.25691			 0.12648
	61.75			  9.79269			  -0.36034			 0.09193
	62.00			  9.75876			  -0.32989			 -0.08838
	62.25			  9.75217			  -0.42860			 -0.03478
	62.50			  9.70577			  -0.52976			 -0.10149
	62.75			  9.71801			  -0.45975			 -0.26576
	63.00			  9.67621			  -0.48145			 -0.13356
	63.25			  9.55823			  -0.42195			 0.04875
	63.50			  9.78872			  -0.42212			 0.07005
	63.75			  9.71078			  -0.39272			 -0.09379
	64.00			  9.56681			  -0.44418			 -0.13677
	64.25			  9.62417			  -0.49528			 -0.21509
	64.50			  9.73850			  -0.51698			 -0.21592
	64.75			  9.77489			  -0.55671			 -0.05145
	65.00			  9.86054			  -0.38887			 -0.08575
	65.25			  9.97201			  -0.47603			 -0.09358
	65.50			  9.97988			  -0.47043			 -0.12343
	65.75			  9.87842			  -0.55479			 -0.14366
	66.00			  9.99402			  -0.63372			 -0.09477
	66.25			  10.07085			  -0.67800			 -0.23184
	66.50			  10.01380			  -0.54989			 -0.33158
	66.75			  10.05639			  -0.57964			 -0.27509
	67.00			  10.19701			  -0.70355			 -0.21633
	67.25			  10.12495			  -0.59207			 -0.06543
	67.50			  10.20448			  -0.56686			 -0.07858
	67.75			  10.27456			  -0.73243			 0.07324
	68.00			  10.12424			  -0.62340			 0.05053
	68.25			  10.21767			  -0.63145			 0.06911
	68.50			  10.20472			  -0.53344			 -0.10483
	68.75			  10.26558			  -0.53956			 0.02231
	69.00			  10.40359			  -0.58542			 0.16673
	69.25			  10.37546			  -0.43542			 0.15037
	69.50			  10.43441			  -0.44873			 0.08169
	69.75			  10.32088			  -0.47410			 0.12629
	70.00			  10.23706			  -0.53116			 0.09081
	70.25			  10.17461			  -0.39762			 0.00634
	70.50			  10.17413			  -0.33671			 -0.03803
	70.75			  10.11876			  -0.39587			 -0.06293
	71.00			  10.10565			  -0.33374			 0.05534
	71.25			  10.13012			  -0.36349			 -0.03608
	71.50			  10.14323			  -0.55549			 0.05828
	71.75			  10.16118			  -0.46098			 -0.00165
	72.00			  10.24111			  -0.48986			 0.10430
	72.25			  10.31373			  -0.32271			 0.07275
	72.50			  10.31937			  -0.40812			 -0.06101
	72.75			  10.21616			  -0.31344			 -0.16723
	73.00			  10.10287			  -0.46640			 -0.23855
	73.25			  10.00792			  -0.42457			 -0.21216
	73.50			  10.08276			  -0.26688			 -0.12527
	73.75			  10.07951			  -0.21455			 -0.05771
	74.00			  10.07196			  -0.18637			 -0.07810
	74.25			  9.88684			  -0.27441			 0.09408
	74.50			  9.86785			  -0.51173			 0.13094
	74.75			  9.78228			  -0.46675			 0.00939
	75.00			  9.79197			  -0.35754			 0.02923
	75.25			  9.76631			  -0.28088			 0.00130
	75.50			  9.72762			  -0.40410			 -0.10119
	75.75			  9.86038			  -0.43490			 -0.14171
	76.00			  9.86499			  -0.39377			 -0.14061
	76.25			  9.80342			  -0.32586			 -0.07496
	76.50			  9.86944			  -0.26583			 -0.02880
	76.75			  9.82685			  -0.29646			 -0.15076
	77.00			  9.76711			  -0.37382			 -0.18625
	77.25			  9.64078			  -0.43735			 -0.18836
	77.50			  9.55926			  -0.43595			 -0.09164
	77.75			  9.67304			  -0.45293			 -0.12481
	78.00			  9.72698			  -0.33374			 -0.01130
	78.25			  9.72460			  -0.39360			 -0.11058
	78.50			  9.79873			  -0.31851			 -0.17285
	78.75			  9.81247			  -0.32446			 -0.17857
	79.00			  9.78435			  -0.26846			 -0.16412
	79.25			  9.75360			  -0.28211			 -0.23216
	79.50			  9.80882			  -0.32359			 -0.23763
	79.75			  9.81541			  -0.31536			 -0.18499
	80.00			  9.81549			  -0.29506			 -0.17124
	80.25			  9.76345			  -0.15907			 -0.15502
	80.50			  9.78697			  -0.05686			 -0.09175
	80.75			  9.76989			  -0.15347			 0.06487
	81.00			  9.88302			  -0.16887			 0.16684
	81.25			  9.97296			  -0.23398			 0.05995
	81.50			  9.89876			  -0.13509			 -0.05711
	81.75			  9.82050			  0.00212			 -0.03191
	82.00			  9.95882			  -0.03691			 -0.09246
	82.25			  9.97312			  0.03555			 -0.19078
	82.50			  10.08181			  0.01297			 -0.06536
	82.75			  9.86563			  -0.06771			 -0.12064
	83.00			  9.84092			  0.14704			 -0.06708
	83.25			  9.85013			  0.26080			 0.01370
	83.50			  9.62537			  0.10993			 -0.00855
	83.75			  9.59239			  0.11886			 -0.01482
	84.00			  9.77966			  0.01070			 0.08444
	84.25			  9.85045			  0.02523			 -0.01153
	84.50			  9.89836			  0.03048			 -0.06385
	84.75			  9.97590			  0.06740			 0.04405
	85.00			  10.04224			  0.14371			 -0.00399
	85.25			  10.02548			  0.08158			 -0.06082
	85.50			  10.04042			  0.04203			 0.02817
	85.75			  10.02024			  0.17714			 0.07834
	86.00			  10.05114			  0.25730			 0.06213
	86.25			  10.05925			  0.26395			 0.16505
	86.50			  9.99457			  0.20444			 0.04625
	86.75			  9.98361			  0.21180			 0.02153
	87.00			  9.96216			  0.05743			 -0.09297
	87.25			  10.00196			  -0.17342			 -0.16334
	87.50			  9.96899			  -0.09694			 -0.06978
	87.75			  9.93800			  0.01560			 -0.05945
	88.00			  10.00514			  0.05830			 -0.08073
	88.25			  10.04272			  0.02172			 -0.07072
	88.50			  9.98591			  0.09348			 -0.08996
	88.75			  9.98981			  -0.00838			 -0.14252
	89.00			  10.01277			  0.04745			 -0.19420
	89.25			  9.96589			  0.25433			 -0.23296
	89.50			  9.96112			  0.31523			 -0.14895
	89.75			  9.85847			  0.07651			 -0.02112
	90.00			  9.98162			  0.05760			 -0.02225
	90.25			  10.05289			  0.13216			 -0.01377
	90.50			  9.96510			  0.06233			 0.01913
	90.75			  9.86269			  0.02207			 -0.09342
	91.00			  9.74359			  0.13514			 -0.10110
	91.25			  9.70100			  0.07283			 0.07081
	91.50			  9.77767			  0.11326			 -0.07177
	91.75			  9.77036			  0.06320			 -0.11631
	92.00			  9.66851			  0.19832			 -0.11865
	92.25			  9.84759			  0.13899			 0.00304
	92.50			  9.75916			  0.17102			 0.00300
	92.75			  9.82081			  0.13671			 0.04430
	93.00			  9.86332			  0.11186			 0.22136
	93.25			  9.87135			  0.18362			 0.15490
	93.50			  9.81049			  0.04273			 0.16634
	93.75			  9.89629			  0.14196			 0.17202
	94.00			  9.79571			  0.05725			 0.26594
	94.25			  9.88263			  0.06198			 0.15145
	94.50			  10.02516			  0.10276			 0.09656
	94.75			  10.05551			  0.15229			 -0.04394
	95.00			  9.96009			  0.14984			 -0.15244
	95.25			  9.98234			  -0.00803			 -0.10096
	95.50			  9.95739			  -0.00085			 -0.05187
	95.75			  9.90877			  0.00807			 -0.11603
	96.00			  9.97400			  -0.02028			 0.05727
	96.25			  9.87309			  -0.10534			 0.12331
	96.50			  9.87707			  -0.10061			 0.04286
	96.75			  9.90527			  -0.15679			 0.07867
	97.00			  9.89796			  -0.03708			 0.11404
	97.25			  9.86030			  0.01297			 0.14043
	97.50			  9.77513			  -0.10341			 0.02655
	97.75			  9.87246			  -0.02973			 0.03287
	98.00			  9.87063			  0.05218			 -0.09823
	98.25			  9.84592			  0.02995			 -0.08211
	98.50			  9.87516			  -0.04181			 -0.08797
	98.75			  9.94770			  0.09436			 -0.16405
	99.00			  9.83647			  -0.02115			 -0.14187
	99.25			  9.84282			  -0.09589			 -0.01315
	99.50			  9.87794			  -0.08679			 -0.11381
	99.75			  9.94388			  -0.06946			 -0.13505
	100.00			  9.90328			  0.16909			 -0.08256
	100.25			  9.89502			  0.11694			 -0.00149
	100.50			  9.85983			  0.02820			 0.05404
	100.75			  9.86316			  0.18117			 -0.07136
	101.00			  9.92347			  0.18222			 -0.06373
	101.25			  9.95739			  0.17172			 0.04199
	101.50			  10.00466			  0.23070			 -0.14927
	101.75			  10.04105			  0.21215			 -0.23191
	102.00			  10.10660			  0.08753			 -0.02131
	102.25			  10.13226			  0.07843			 -0.05485
	102.50			  10.06084			  0.06898			 -0.14204
	102.75			  10.08022			  0.04763			 -0.09881
	103.00			  10.15792			  -0.17307			 -0.15940
	103.25			  10.06393			  -0.22295			 -0.22221
	103.50			  10.08102			  -0.13842			 -0.30356
	103.75			  10.05655			  -0.09431			 -0.15200
	104.00			  10.19606			  0.00982			 -0.05977
	104.25			  10.16841			  0.02470			 -0.02610
	104.50			  10.16452			  0.10958			 -0.00030
	104.75			  10.10461			  0.01595			 -0.05945
	105.00			  10.07474			  0.03923			 -0.06385
	105.25			  10.09174			  0.22510			 -0.02763
	105.50			  10.24254			  0.19219			 -0.06115
	105.75			  10.33137			  0.19989			 -0.25694
	106.00			  10.28679			  0.12586			 -0.21126
	106.25			  10.33955			  0.29475			 -0.28544
	106.50			  10.27488			  0.42917			 -0.26139
	106.75			  10.27146			  0.43127			 -0.09118
	107.00			  10.24492			  0.32993			 -0.11942
	107.25			  10.14116			  0.14721			 -0.29763
	107.50			  10.09730			  0.16209			 -0.18987
	107.75			  10.18732			  0.23875			 -0.15211
	108.00			  10.35981			  0.36441			 -0.14139
	108.25			  10.42416			  0.32223			 -0.19001
	108.50			  10.67928			  0.38997			 -0.20015
	108.75			  10.70399			  0.37754			 -0.23168
	109.00			  10.60507			  0.26588			 -0.13354
	109.25			  10.62533			  0.27883			 -0.17042
	109.50			  10.64647			  0.20900			 -0.23007
	109.75			  10.58505			  0.30946			 -0.27305
	110.00			  10.65243			  0.17627			 -0.36670
	110.25			  10.56940			  0.13461			 -0.36720
	110.50			  10.47056			  0.23682			 -0.44761
	110.75			  10.45841			  0.15281			 -0.30950
	111.00			  10.38682			  -0.02588			 -0.15697
	111.25			  10.36887			  -0.10779			 -0.06907
	111.50			  10.41288			  -0.11672			 -0.00621
	111.75			  10.39834			  -0.08031			 -0.02264
	112.00			  10.30626			  -0.21000			 -0.13335
	112.25			  10.26502			  -0.13107			 -0.06334
	112.50			  10.38921			  -0.16765			 -0.14348
	112.75			  10.39572			  -0.29944			 -0.15935
	113.00			  10.38682			  -0.35282			 -0.13154
	113.25			  10.39429			  -0.27826			 -0.11145
	113.50			  10.40788			  -0.25673			 -0.15885
	113.75			  10.48598			  -0.20545			 -0.11942
	114.00			  10.49186			  -0.14804			 -0.09892
	114.25			  10.43473			  -0.19897			 -0.04447
	114.50			  10.42544			  -0.17447			 -0.07613
	114.75			  10.41550			  -0.15644			 -0.14801
	115.00			  10.42242			  -0.24990			 -0.20574
	115.25			  10.33113			  -0.20405			 -0.17759
	115.50			  10.31635			  -0.35964			 -0.12000
	115.75			  10.35743			  -0.23975			 -0.17239
	116.00			  10.49051			  -0.23695			 -0.08838
	116.25			  10.39199			  -0.34564			 -0.01063
	116.50			  10.17064			  -0.35107			 -0.04999
	116.75			  9.98361			  -0.32971			 0.02130
	117.00			  9.99171			  -0.32621			 0.02524
	117.25			  10.07037			  -0.14559			 -0.23426
	117.50			  10.07140			  -0.27616			 -0.18579
	117.75			  10.11979			  -0.32656			 -0.07441
	118.00			  10.08006			  -0.26916			 -0.12357
	118.25			  10.02270			  -0.30941			 -0.06261
	118.50			  10.03795			  -0.26496			 -0.04919
	118.75			  10.23189			  -0.26758			 0.11956
	119.00			  10.16794			  -0.20300			 0.16886
	119.25			  10.05369			  -0.21333			 -0.01244
	119.50			  10.02818			  -0.28001			 -0.05984
	119.75			  10.01523			  -0.16240			 -0.09766
	120.00			  10.00991			  -0.24535			 -0.19406
	120.25			  9.92601			  -0.11024			 -0.12575
	120.50			  9.96263			  -0.06893			 -0.08220
	120.75			  10.08102			  -0.05161			 0.08716
	121.00			  10.02063			  -0.04758			 0.19186
	121.25			  10.00609			  -0.12179			 0.06529
	121.50			  10.05615			  -0.07769			 0.08155
	121.75			  9.93475			  0.00055			 0.04185
	122.00			  9.91258			  0.00702			 0.04002
	122.25			  9.92045			  0.03993			 0.10263
	122.50			  9.83631			  0.03800			 -0.01175
	122.75			  9.87111			  -0.21980			 0.00128
	123.00			  9.91258			  -0.19880			 -0.08156
	123.25			  9.89359			  -0.11024			 -0.07594
	123.50			  9.93006			  -0.08521			 -0.10941
	123.75			  9.86197			  -0.12512			 -0.10797
	124.00			  9.89717			  -0.06088			 0.02575
	124.25			  9.87651			  -0.15172			 -0.06273
	124.50			  9.93332			  -0.06841			 -0.12071
	124.75			  10.00347			  -0.15609			 -0.08321
	125.00			  10.06171			  -0.22330			 -0.05155
	125.25			  10.07061			  -0.25796			 -0.05604
	125.50			  10.03184			  -0.36279			 -0.21947
	125.75			  10.08157			  -0.25498			 -0.11562
	126.00			  10.01181			  -0.23065			 -0.09271
	126.25			  10.10144			  -0.18077			 0.09346
	126.50			  9.95175			  -0.33059			 0.23710
	126.75			  9.96534			  -0.34284			 0.16203
	127.00			  9.86936			  -0.43753			 0.08070
	127.25			  9.84258			  -0.48163			 0.12368
	127.50			  9.90940			  -0.52643			 0.07367
	127.75			  9.99259			  -0.47988			 0.12114
	128.00			  9.95127			  -0.50333			 0.06439
	128.25			  9.89113			  -0.40427			 -0.08314
	128.50			  9.82113			  -0.34389			 -0.07794
	128.75			  9.69044			  -0.27931			 -0.04662
	129.00			  9.77894			  -0.28841			 -0.04380
	129.25			  9.74327			  -0.26933			 -0.11631
	129.50			  9.67963			  -0.31816			 -0.17411
	129.75			  9.69552			  -0.30276			 -0.15786
	130.00			  9.80008			  -0.27668			 -0.12114
	130.25			  9.82129			  -0.32534			 -0.14685
	130.50			  9.83440			  -0.32096			 -0.02243
	130.75			  9.94555			  -0.41320			 -0.05766
	131.00			  9.94460			  -0.50771			 -0.14543
	131.25			  9.83106			  -0.42177			 -0.07837
	131.50			  9.77847			  -0.38554			 -0.08048
	131.75			  9.78355			  -0.51646			 -0.12247
	132.00			  9.83043			  -0.59347			 -0.06360
	132.25			  9.76750			  -0.54691			 0.09271
	132.50			  9.83448			  -0.56231			 0.01232
	132.75			  10.06354			  -0.53554			 -0.02910
	133.00			  10.13210			  -0.54499			 -0.09150
	133.25			  10.09047			  -0.44435			 -0.07102
	133.50			  10.16325			  -0.30661			 0.12178
	133.75			  10.09524			  -0.27196			 0.02659
	134.00			  10.07093			  -0.23590			 -0.15665
	134.25			  10.01181			  -0.19145			 -0.17518
	134.50			  10.05734			  -0.09851			 -0.25949
	134.75			  10.19670			  -0.01538			 -0.35201
	135.00			  10.21322			  -0.02886			 -0.23310
	135.25			  10.14021			  -0.16327			 -0.34244
	135.50			  10.16317			  -0.21525			 -0.25158
	135.75			  10.13075			  -0.22225			 -0.23605
	136.00			  10.21370			  -0.20055			 -0.14236
	136.25			  10.17731			  -0.09799			 -0.20719
	136.50			  10.22466			  -0.14174			 -0.16022
	136.75			  10.18359			  -0.18235			 -0.09450
	137.00			  10.27067			  -0.20440			 -0.02181
	137.25			  10.30880			  -0.19617			 -0.03840
	137.50			  10.31317			  -0.03621			 -0.05430
	137.75			  10.31476			  -0.18672			 0.00589
	138.00			  10.21195			  -0.08731			 -0.02706
	138.25			  10.20750			  -0.08871			 -0.04923
	138.50			  10.14688			  -0.14892			 -0.04300
	138.75			  10.09754			  -0.22593			 0.04116
	139.00			  10.02032			  -0.11672			 0.06950
	139.25			  10.10700			  0.01665			 0.01109
	139.50			  10.07204			  -0.03743			 -0.02364
	139.75			  9.94404			  -0.04181			 -0.01453
	140.00			  9.84076			  0.11519			 -0.16673
	140.25			  9.75106			  0.02925			 -0.11920
	140.50			  9.77052			  0.19814			 -0.16588
	140.75			  9.70752			  0.04185			 -0.25362
	141.00			  9.58151			  -0.02028			 -0.16856
	141.25			  9.62966			  -0.01573			 -0.21846
	141.50			  9.61432			  -0.05668			 -0.09830
	141.75			  9.73803			  -0.01520			 -0.00752
	142.00			  9.79881			  0.04780			 0.15594
	142.25			  9.85252			  -0.03358			 0.20315
	142.50			  9.85275			  -0.23013			 0.35911
	142.75			  9.81009			  -0.12127			 0.27513
	143.00			  9.89439			  -0.26723			 0.12141
	143.25			  9.81104			  -0.28683			 0.05514
	143.50			  9.77839			  -0.22943			 0.05305
	143.75			  9.71602			  -0.22960			 -0.14792
	144.00			  9.77418			  -0.05406			 -0.20879
	144.25			  9.75606			  -0.03411			 -0.18735
	144.50			  9.80183			  -0.13124			 -0.00165
	144.75			  9.82479			  -0.12652			 -0.01001
	145.00			  9.87961			  -0.07751			 0.00703
	145.25			  9.85204			  -0.07909			 -0.03407
	145.50			  9.74994			  0.03503			 -0.04373
	145.75			  9.78903			  0.00527			 -0.06660
	146.00			  9.83694			  0.11571			 0.05562
	146.25			  9.72825			  0.11133			 0.15296
	146.50			  9.85093			  0.08543			 0.14824
	146.75			  9.97408			  0.05883			 -0.02573
	147.00			  9.92919			  -0.05791			 -0.05810
	147.25			  9.86276			  -0.19442			 -0.07938
	147.50			  10.01889			  -0.14577			 -0.09817
	147.75			  10.04518			  -0.23800			 -0.07173
	148.00			  10.16404			  -0.13877			 -0.13528
	148.25			  10.26264			  -0.12914			 -0.09461
	148.50			  10.23610			  -0.17465			 -0.05814
	148.75			  10.25565			  -0.18620			 0.12281
	149.00			  10.18152			  -0.17132			 0.09557
	149.25			  10.24612			  -0.17045			 0.10501
	149.50			  10.20869			  -0.17640			 0.01372
	149.75			  10.11899			  -0.15802			 -0.04662
	150.00			  10.09826			  -0.14419			 -0.02479
	150.25			  10.04240			  -0.01730			 0.06698
	150.50			  10.10183			  0.05025			 0.00453
	150.75			  10.21092			  0.08893			 -0.08579
	151.00			  10.18772			  0.04658			 -0.17534
	151.25			  10.28560			  0.03678			 -0.00225
	151.50			  10.16857			  -0.03901			 -0.08577
	151.75			  10.24612			  0.02628			 -0.06376
	152.00			  10.34567			  -0.01888			 -0.18194
	152.25			  10.31134			  0.04570			 -0.01840
	152.50			  10.18383			  -0.02220			 0.02245
	152.75			  10.27297			  0.03293			 -0.02978
	153.00			  10.29649			  -0.06456			 -0.01485
	153.25			  10.35528			  -0.20738			 0.01106
	153.50			  10.28266			  -0.32936			 -0.07558
	153.75			  10.32874			  -0.35824			 0.04080
	154.00			  10.35607			  -0.31099			 -0.00131
	154.25			  10.29609			  -0.36472			 0.03207
	154.50			  10.34455			  -0.35019			 -0.01620
	154.75			  10.34265			  -0.32621			 -0.13594
	155.00			  10.36187			  -0.14314			 -0.02261
	155.25			  10.37777			  -0.09659			 -0.14602
	155.50			  10.44244			  -0.11059			 -0.13862
	155.75			  10.27988			  -0.28806			 -0.10797
	156.00			  10.21910			  -0.27616			 0.07793
	156.25			  10.31309			  -0.34389			 0.02052
	156.50			  10.29402			  -0.32061			 -0.04069
	156.75			  10.24230			  -0.46098			 -0.17305
	157.00			  10.10779			  -0.36752			 -0.12362
	157.25			  10.10159			  -0.30364			 -0.06916
	157.50			  10.07418			  -0.23205			 -0.06728
	157.75			  10.06648			  -0.24588			 -0.19571
	158.00			  10.11669			  -0.33304			 -0.30372
	158.25			  10.15705			  -0.39220			 -0.17718
	158.50			  10.26065			  -0.36839			 -0.17017
	158.75			  10.21140			  -0.29401			 -0.20432
	159.00			  10.10906			  -0.25813			 -0.14513
	159.25			  10.18748			  -0.30329			 -0.19237
	159.50			  10.14799			  -0.18165			 -0.17413
	159.75			  10.08054			  -0.08749			 -0.07462
	160.00			  10.17540			  -0.03778			 -0.01915
	160.25			  10.13163			  -0.07401			 0.04790
	160.50			  10.07569			  -0.08084			 -0.00280
	160.75			  10.12146			  -0.08661			 -0.04197
	161.00			  10.02294			  -0.04531			 -0.04154
	161.25			  10.04876			  -0.07489			 -0.02747
	161.50			  10.19558			  -0.09641			 0.03679
	161.75			  10.08880			  0.00527			 0.05017
	162.00			  10.02707			  -0.12617			 0.03111
	162.25			  10.00458			  -0.10814			 0.16856
	162.50			  9.98146			  -0.10656			 0.02401
	162.75			  10.00069			  -0.11882			 0.14897
	163.00			  9.93943			  -0.03691			 0.07926
	163.25			  10.03930			  -0.10726			 0.10034
	163.50			  10.08944			  -0.11374			 0.05486
	163.75			  10.01181			  -0.13124			 0.16783
	164.00			  10.01912			  -0.13282			 0.06059
	164.25			  10.04542			  -0.12249			 -0.02367
	164.50			  10.15316			  -0.15627			 -0.06273
	164.75			  10.08594			  -0.17115			 -0.14082
	165.00			  10.13647			  -0.13177			 -0.04493
	165.25			  10.18279			  -0.07419			 0.05271