--------------TurbSim v2.00.* User Time Series Input File-----------------------
     Time series input from low-res turbsim run
--------------------------------------------------------------------------------
          3 nComp - Number of velocity components in the file
          1 nPoints - Number of time series points contained in this file (-)
          1 RefPtID - Index of the reference point (1-nPoints)
     Pointyi Pointzi ! nPoints listed in order of increasing height
       (m)     (m)
       4.62352   94.00000
--------Time Series-------------------------------------------------------------
Elapsed Time         Point01u             Point01v           Point01w
         (s)            (m/s)                (m/s)              (m/s)
	0.00			  10.38322			  -0.38136			 0.06555
	0.25			  10.38390			  -0.40765			 0.10173
	0.50			  10.52752			  -0.39459			 0.07245
	0.75			  10.47212			  -0.35216			 0.06401
	1.00			  10.32142			  -0.32966			 0.04707
	1.25			  10.40186			  -0.33086			 0.03430
	1.50			  10.49099			  -0.18897			 -0.05550
	1.75			  10.51808			  -0.11596			 -0.08612
	2.00			  10.50955			  -0.22607			 -0.06256
	2.25			  10.42873			  -0.22418			 -0.00284
	2.50			  10.43047			  -0.25442			 0.12344
	2.75			  10.33598			  -0.24016			 0.10184
	3.00			  10.32248			  -0.27211			 0.26763
	3.25			  10.23478			  -0.27744			 0.27422
	3.50			  10.17585			  -0.11115			 0.14696
	3.75			  10.18286			  -0.26696			 0.06858
	4.00			  10.15109			  -0.25339			 0.10899
	4.25			  10.22188			  -0.33825			 0.08043
	4.50			  10.15177			  -0.40902			 0.06878
	4.75			  10.24482			  -0.35044			 -0.01513
	5.00			  10.38632			  -0.40215			 0.06038
	5.25			  10.50835			  -0.38686			 -0.01330
	5.50			  10.48125			  -0.39064			 -0.04018
	5.75			  10.45756			  -0.29135			 -0.12862
	6.00			  10.62004			  -0.24583			 -0.20153
	6.25			  10.55219			  -0.19154			 -0.28399
	6.50			  10.50578			  -0.07989			 -0.29322
	6.75			  10.60026			  -0.24634			 -0.23303
	7.00			  10.66230			  -0.22951			 -0.03906
	7.25			  10.63158			  -0.27125			 -0.02714
	7.50			  10.56072			  -0.15100			 0.11967
	7.75			  10.45560			  -0.23449			 0.05377
	8.00			  10.42609			  -0.40318			 -0.01681
	8.25			  10.41364			  -0.24033			 -0.02450
	8.50			  10.37983			  -0.20288			 -0.00111
	8.75			  10.33636			  -0.07868			 0.03197
	9.00			  10.24603			  -0.04639			 0.04098
	9.25			  10.24203			  -0.23226			 -0.09208
	9.50			  10.31659			  -0.23312			 -0.01413
	9.75			  10.36360			  -0.19962			 0.05093
	10.00			  10.35281			  -0.13108			 0.01022
	10.25			  10.24927			  -0.26610			 0.10072
	10.50			  10.24625			  -0.27280			 0.18500
	10.75			  10.31138			  -0.13589			 0.06679
	11.00			  10.39628			  -0.03831			 0.15946
	11.25			  10.43092			  -0.04450			 0.16546
	11.50			  10.50442			  -0.13262			 0.03274
	11.75			  10.49906			  -0.11132			 -0.12828
	12.00			  10.55370			  -0.10789			 -0.03229
	12.25			  10.51793			  -0.18983			 -0.01953
	12.50			  10.42692			  -0.28001			 -0.01717
	12.75			  10.40835			  -0.29942			 0.03943
	13.00			  10.26814			  -0.10978			 -0.13075
	13.25			  10.40292			  -0.29084			 -0.04282
	13.50			  10.48427			  -0.27812			 0.08477
	13.75			  10.38700			  -0.22350			 0.05706
	14.00			  10.35100			  -0.16990			 -0.01513
	14.25			  10.44903			  -0.18777			 -0.05057
	14.50			  10.44745			  -0.12678			 0.01271
	14.75			  10.42579			  -0.23741			 0.04736
	15.00			  10.40224			  -0.28207			 0.07055
	15.25			  10.50510			  -0.33808			 0.12563
	15.50			  10.45786			  -0.28070			 0.07539
	15.75			  10.41937			  -0.20374			 0.01553
	16.00			  10.49408			  -0.19172			 -0.10783
	16.25			  10.55453			  -0.23243			 -0.08236
	16.50			  10.40881			  -0.11957			 -0.12259
	16.75			  10.40934			  -0.08504			 0.03381
	17.00			  10.38353			  -0.14740			 -0.03205
	17.25			  10.32504			  -0.09672			 -0.06540
	17.50			  10.38028			  -0.03454			 0.00736
	17.75			  10.44352			  -0.08057			 -0.03332
	18.00			  10.42571			  -0.11596			 -0.10348
	18.25			  10.41485			  -0.11562			 -0.06731
	18.50			  10.37568			  -0.13228			 0.01237
	18.75			  10.35545			  0.01597			 -0.03259
	19.00			  10.37689			  0.02198			 -0.05685
	19.25			  10.34036			  -0.04192			 -0.09007
	19.50			  10.30406			  0.02971			 -0.21054
	19.75			  10.31312			  -0.04433			 -0.23543
	20.00			  10.33078			  0.03298			 -0.26509
	20.25			  10.37651			  0.06029			 -0.13063
	20.50			  10.38338			  0.07678			 -0.08848
	20.75			  10.47039			  0.13742			 -0.05431
	21.00			  10.48608			  0.03383			 -0.14822
	21.25			  10.53906			  0.00549			 -0.16439
	21.50			  10.53031			  -0.07078			 -0.10873
	21.75			  10.49688			  -0.16406			 -0.09820
	22.00			  10.42043			  -0.10651			 -0.06677
	22.25			  10.30051			  -0.09878			 -0.17828
	22.50			  10.24527			  -0.14293			 -0.03772
	22.75			  10.37379			  -0.17248			 0.01103
	23.00			  10.46201			  -0.07954			 0.08715
	23.25			  10.40164			  -0.26318			 0.17402
	23.50			  10.34013			  -0.21302			 -0.01625
	23.75			  10.27259			  -0.23758			 0.02837
	24.00			  10.28233			  -0.31128			 0.04237
	24.25			  10.36730			  -0.18244			 -0.07891
	24.50			  10.35093			  -0.07490			 0.08007
	24.75			  10.37621			  -0.06924			 -0.03729
	25.00			  10.39794			  -0.00585			 -0.13249
	25.25			  10.35462			  -0.15100			 0.00944
	25.50			  10.39002			  -0.16526			 -0.01892
	25.75			  10.46541			  -0.08109			 -0.08290
	26.00			  10.37990			  0.07420			 -0.10745
	26.25			  10.37915			  0.15872			 -0.05154
	26.50			  10.48880			  0.09808			 -0.06041
	26.75			  10.43311			  0.12110			 -0.07452
	27.00			  10.43854			  0.22589			 0.07216
	27.25			  10.36511			  0.31985			 0.16741
	27.50			  10.35659			  0.25990			 0.19270
	27.75			  10.39258			  0.14463			 0.25710
	28.00			  10.37583			  0.15597			 0.16598
	28.25			  10.30104			  0.04620			 0.10274
	28.50			  10.33108			  0.09018			 0.06170
	28.75			  10.32549			  -0.03350			 0.05700
	29.00			  10.18294			  -0.03385			 0.15213
	29.25			  10.18988			  -0.16595			 0.23390
	29.50			  10.22784			  -0.06992			 0.09479
	29.75			  10.28135			  -0.00447			 0.01685
	30.00			  10.29870			  0.01975			 -0.06735
	30.25			  10.29916			  0.11852			 -0.03487
	30.50			  10.36549			  0.03847			 0.03650
	30.75			  10.35915			  0.05685			 0.07649
	31.00			  10.39907			  -0.10016			 0.12725
	31.25			  10.41900			  -0.11407			 0.14808
	31.50			  10.42383			  -0.17402			 0.08858
	31.75			  10.52993			  -0.03797			 0.08112
	32.00			  10.42541			  0.00944			 0.18164
	32.25			  10.45794			  -0.08349			 0.13791
	32.50			  10.40669			  0.02147			 0.19935
	32.75			  10.40798			  -0.02457			 0.17380
	33.00			  10.40254			  0.11337			 -0.08469
	33.25			  10.24837			  -0.09689			 -0.14013
	33.50			  10.22407			  -0.06889			 -0.09555
	33.75			  10.32881			  -0.03746			 0.05155
	34.00			  10.21509			  0.05479			 0.08428
	34.25			  10.23109			  0.15975			 -0.08662
	34.50			  10.23395			  0.30611			 -0.04381
	34.75			  10.25810			  0.34339			 0.10164
	35.00			  10.30972			  0.46621			 0.03930
	35.25			  10.33757			  0.26626			 0.11199
	35.50			  10.26354			  0.14498			 0.07073
	35.75			  10.30716			  0.10753			 0.17899
	36.00			  10.37424			  -0.01272			 0.18571
	36.25			  10.36783			  -0.03986			 0.14682
	36.50			  10.13781			  0.01597			 0.15670
	36.75			  10.16324			  -0.04828			 0.15930
	37.00			  10.36081			  0.10959			 0.09476
	37.25			  10.41990			  0.18002			 0.14284
	37.50			  10.37696			  0.22280			 -0.00212
	37.75			  10.46971			  0.23585			 0.08670
	38.00			  10.52804			  0.11303			 0.15623
	38.25			  10.46043			  0.10220			 0.28430
	38.50			  10.51672			  0.22039			 0.17057
	38.75			  10.59309			  0.29941			 0.01314
	39.00			  10.53861			  0.16250			 0.05240
	39.25			  10.60358			  0.18088			 0.25654
	39.50			  10.66041			  0.19514			 0.30041
	39.75			  10.35402			  0.28103			 0.30580
	40.00			  10.32323			  0.34476			 0.22039
	40.25			  10.24286			  0.38839			 0.19328
	40.50			  10.21592			  0.41743			 0.07709
	40.75			  10.23531			  0.42052			 0.15066
	41.00			  10.26837			  0.41725			 0.21629
	41.25			  10.32693			  0.39149			 0.11835
	41.50			  10.30663			  0.27691			 0.11434
	41.75			  10.26769			  0.32226			 0.10063
	42.00			  10.19773			  0.19084			 0.05503
	42.25			  10.22339			  0.23929			 -0.01249
	42.50			  10.31078			  0.47600			 -0.01583
	42.75			  10.34534			  0.45109			 0.01965
	43.00			  10.21999			  0.51826			 -0.05658
	43.25			  10.23403			  0.46930			 -0.02443
	43.50			  10.22837			  0.43031			 -0.07161
	43.75			  10.27357			  0.41399			 -0.02497
	44.00			  10.36119			  0.38908			 -0.03270
	44.25			  10.32331			  0.36177			 -0.12922
	44.50			  10.21841			  0.39269			 -0.13677
	44.75			  10.32730			  0.36623			 -0.23796
	45.00			  10.33138			  0.37723			 -0.33193
	45.25			  10.32398			  0.29958			 -0.29775
	45.50			  10.24203			  0.20991			 -0.29306
	45.75			  10.22007			  0.13519			 -0.30294
	46.00			  10.25229			  0.17092			 -0.21820
	46.25			  10.35493			  0.16817			 -0.27548
	46.50			  10.32421			  0.14257			 -0.23630
	46.75			  10.25531			  0.11492			 -0.31829
	47.00			  10.33613			  0.12265			 -0.29026
	47.25			  10.34791			  0.27364			 -0.25003
	47.50			  10.27184			  0.23929			 -0.28381
	47.75			  10.32821			  0.11148			 -0.17203
	48.00			  10.30406			  -0.04467			 -0.10422
	48.25			  10.21977			  -0.08178			 -0.14822
	48.50			  10.31704			  -0.03333			 -0.09977
	48.75			  10.29772			  -0.10411			 -0.02206
	49.00			  10.28670			  -0.22590			 -0.15832
	49.25			  10.28059			  -0.20666			 -0.24138
	49.50			  10.29901			  -0.19876			 -0.20695
	49.75			  10.39122			  -0.14654			 -0.33966
	50.00			  10.27833			  -0.11665			 -0.18648
	50.25			  10.37009			  -0.21955			 -0.12913
	50.50			  10.43560			  -0.24377			 -0.15976
	50.75			  10.56480			  -0.20323			 -0.16249
	51.00			  10.58351			  -0.15839			 -0.15866
	51.25			  10.42956			  -0.01375			 -0.19663
	51.50			  10.28044			  -0.11562			 -0.13807
	51.75			  10.26376			  -0.05309			 -0.03189
	52.00			  10.16837			  0.03177			 -0.13998
	52.25			  10.06906			  0.08709			 -0.14063
	52.50			  10.02273			  0.15133			 -0.17165
	52.75			  9.99495			  0.13879			 -0.15523
	53.00			  9.96258			  0.14755			 0.03542
	53.25			  10.03088			  -0.03797			 0.02021
	53.50			  10.01156			  0.07919			 0.01293
	53.75			  10.06506			  0.13072			 -0.07129
	54.00			  10.21463			  0.13536			 -0.16489
	54.25			  10.14528			  0.18483			 -0.08496
	54.50			  10.12023			  0.23516			 -0.07342
	54.75			  10.12642			  0.19497			 0.00904
	55.00			  10.11894			  0.04741			 -0.00221
	55.25			  10.09540			  0.15666			 -0.08798
	55.50			  10.07570			  0.01769			 -0.20859
	55.75			  10.05389			  0.04311			 -0.16043
	56.00			  10.03971			  -0.02028			 -0.11486
	56.25			  10.13109			  -0.01186			 -0.16112
	56.50			  10.05691			  0.17264			 -0.27174
	56.75			  10.17728			  0.09568			 -0.28493
	57.00			  10.26512			  0.13330			 -0.21401
	57.25			  10.20875			  0.23980			 -0.25926
	57.50			  10.13094			  0.24513			 -0.32557
	57.75			  10.06106			  0.15717			 -0.36300
	58.00			  10.10808			  0.16611			 -0.27286
	58.25			  10.05314			  0.14343			 -0.09249
	58.50			  9.97480			  0.17916			 -0.03821
	58.75			  10.03397			  0.22039			 -0.07199
	59.00			  9.99246			  0.08606			 -0.12311
	59.25			  9.94900			  0.09413			 -0.01811
	59.50			  9.96620			  0.00463			 -0.16370
	59.75			  9.90847			  0.07300			 -0.06193
	60.00			  9.89383			  0.17916			 -0.07521
	60.25			  9.95949			  0.19772			 -0.18211
	60.50			  9.97292			  0.18775			 -0.18632
	60.75			  9.90960			  0.04208			 -0.05841
	61.00			  9.98296			  0.17693			 -0.11032
	61.25			  10.04091			  0.08400			 -0.17911
	61.50			  9.99412			  0.17865			 -0.16592
	61.75			  9.92085			  0.19291			 -0.13834
	62.00			  9.99420			  0.11131			 -0.20263
	62.25			  9.96711			  0.14154			 -0.19454
	62.50			  9.98590			  0.07231			 -0.10604
	62.75			  9.95949			  0.09722			 -0.11036
	63.00			  10.05804			  0.10684			 -0.16692
	63.25			  10.08521			  0.15048			 -0.12268
	63.50			  9.90281			  0.16422			 -0.08485
	63.75			  9.90387			  0.18329			 0.00937
	64.00			  9.96869			  0.07111			 -0.02925
	64.25			  10.09917			  0.00223			 -0.05301
	64.50			  10.25478			  0.08211			 -0.25422
	64.75			  10.14958			  0.06372			 -0.27575
	65.00			  10.24973			  0.08640			 -0.32098
	65.25			  10.16536			  0.16576			 -0.29629
	65.50			  10.16619			  0.12007			 -0.24031
	65.75			  10.22927			  0.14962			 -0.27552
	66.00			  10.20015			  0.17195			 -0.27089
	66.25			  10.14309			  0.13072			 -0.13729
	66.50			  10.09729			  0.18037			 -0.13709
	66.75			  10.11993			  0.12179			 -0.15557
	67.00			  10.20437			  0.06029			 -0.20911
	67.25			  10.09570			  0.07128			 -0.27306
	67.50			  10.23848			  0.08468			 -0.00667
	67.75			  10.25191			  0.09241			 0.03542
	68.00			  10.26422			  0.15322			 0.05724
	68.25			  10.26097			  0.09654			 -0.03812
	68.50			  10.27025			  -0.05910			 0.07969
	68.75			  10.18226			  -0.00327			 0.08952
	69.00			  10.13675			  -0.00499			 0.09277
	69.25			  10.22724			  -0.09019			 0.00561
	69.50			  10.12823			  0.01202			 -0.03785
	69.75			  10.18015			  0.03487			 -0.03061
	70.00			  10.13758			  -0.05790			 0.00886
	70.25			  10.12951			  -0.09792			 0.05807
	70.50			  10.14973			  -0.14121			 -0.00505
	70.75			  10.21901			  -0.13692			 -0.05974
	71.00			  10.26874			  -0.01323			 -0.10662
	71.25			  10.12672			  -0.12214			 -0.18140
	71.50			  10.14732			  -0.15049			 -0.10754
	71.75			  10.20648			  -0.33670			 -0.14600
	72.00			  10.16188			  -0.31248			 -0.05629
	72.25			  10.09072			  -0.20443			 0.03446
	72.50			  10.13004			  -0.14310			 0.06739
	72.75			  10.20188			  -0.10960			 0.10316
	73.00			  10.28429			  -0.30303			 0.00120
	73.25			  10.36511			  -0.17815			 -0.09219
	73.50			  10.30233			  -0.44389			 -0.10985
	73.75			  10.23720			  -0.43908			 -0.00432
	74.00			  10.22112			  -0.35955			 -0.05539
	74.25			  10.08506			  -0.28139			 -0.03568
	74.50			  10.06189			  -0.38995			 0.04382
	74.75			  10.05963			  -0.48117			 0.01748
	75.00			  10.19230			  -0.59283			 0.03959
	75.25			  10.20475			  -0.50299			 0.01775
	75.50			  10.20060			  -0.38600			 0.02098
	75.75			  10.23335			  -0.40988			 -0.10102
	76.00			  10.14973			  -0.41022			 -0.07022
	76.25			  10.27433			  -0.38617			 -0.11639
	76.50			  10.31991			  -0.33035			 -0.06670
	76.75			  10.38345			  -0.41847			 -0.08415
	77.00			  10.45235			  -0.31076			 -0.01758
	77.25			  10.41869			  -0.38240			 -0.03617
	77.50			  10.42345			  -0.43651			 -0.03724
	77.75			  10.48420			  -0.25459			 0.14275
	78.00			  10.55015			  -0.33498			 0.18500
	78.25			  10.41575			  -0.31076			 0.20233
	78.50			  10.43175			  -0.40610			 0.27061
	78.75			  10.41032			  -0.43926			 0.36266
	79.00			  10.34881			  -0.46915			 0.11381
	79.25			  10.38232			  -0.48821			 0.08742
	79.50			  10.41432			  -0.52154			 0.21833
	79.75			  10.58223			  -0.67460			 0.19223
	80.00			  10.73459			  -0.72545			 -0.01921
	80.25			  10.57355			  -0.62049			 -0.07707
	80.50			  10.48827			  -0.65072			 -0.02347
	80.75			  10.57498			  -0.46279			 -0.13146
	81.00			  10.46729			  -0.50934			 0.02154
	81.25			  10.37153			  -0.61499			 0.08359
	81.50			  10.45024			  -0.54628			 0.04300
	81.75			  10.57189			  -0.42637			 0.20504
	82.00			  10.56464			  -0.36711			 0.22462
	82.25			  10.57400			  -0.26747			 0.00303
	82.50			  10.50601			  -0.17626			 0.00706
	82.75			  10.56879			  -0.32279			 0.05986
	83.00			  10.64592			  -0.31506			 0.10780
	83.25			  10.61687			  -0.28740			 0.14190
	83.50			  10.61234			  -0.24428			 0.13753
	83.75			  10.52472			  -0.29444			 0.13365
	84.00			  10.54057			  -0.24308			 0.11157
	84.25			  10.58638			  -0.13176			 0.12366
	84.50			  10.63249			  -0.10651			 0.07261
	84.75			  10.63226			  -0.03831			 -0.04562
	85.00			  10.64426			  -0.22195			 0.07951
	85.25			  10.58057			  -0.35027			 0.11325
	85.50			  10.50827			  -0.46313			 0.06204
	85.75			  10.48329			  -0.27297			 0.15561
	86.00			  10.53868			  -0.26713			 0.11450
	86.25			  10.61656			  -0.18485			 0.09535
	86.50			  10.52518			  -0.07164			 -0.08747
	86.75			  10.66358			  0.02593			 0.02577
	87.00			  10.54268			  -0.02268			 0.02077
	87.25			  10.52804			  -0.00653			 0.09069
	87.50			  10.69520			  0.01889			 0.03029
	87.75			  10.81768			  0.13605			 0.01401
	88.00			  10.87805			  0.11440			 0.05957
	88.25			  10.76025			  0.03194			 0.07071
	88.50			  10.71837			  -0.00928			 0.10702
	88.75			  10.75844			  0.00446			 0.05010
	89.00			  10.60849			  -0.11888			 0.00350
	89.25			  10.50797			  -0.03316			 0.00561
	89.50			  10.53235			  -0.07216			 -0.04343
	89.75			  10.56819			  -0.13726			 0.11564
	90.00			  10.48488			  -0.13108			 0.12915
	90.25			  10.56344			  -0.19275			 0.06956
	90.50			  10.57038			  -0.19756			 -0.04186
	90.75			  10.50405			  -0.03282			 0.16712
	91.00			  10.45477			  0.02696			 0.07185
	91.25			  10.41967			  0.03212			 0.03713
	91.50			  10.43258			  0.07214			 -0.08498
	91.75			  10.40081			  -0.08487			 -0.08471
	92.00			  10.38670			  -0.12713			 -0.11495
	92.25			  10.39047			  -0.13348			 -0.05328
	92.50			  10.34617			  -0.04415			 -0.06527
	92.75			  10.32761			  -0.02474			 -0.09157
	93.00			  10.38813			  0.05496			 -0.06657
	93.25			  10.38858			  -0.04931			 0.02852
	93.50			  10.26165			  -0.04433			 -0.03514
	93.75			  10.21486			  -0.01650			 0.08892
	94.00			  10.33047			  -0.08178			 0.06152
	94.25			  10.42798			  -0.22693			 -0.09455
	94.50			  10.47363			  -0.34203			 -0.01973
	94.75			  10.52540			  -0.41349			 -0.14024
	95.00			  10.59483			  -0.17024			 -0.08377
	95.25			  10.62162			  -0.14705			 -0.10192
	95.50			  10.64019			  -0.14654			 -0.00297
	95.75			  10.79670			  -0.08298			 -0.09710
	96.00			  10.82477			  0.10512			 -0.00190
	96.25			  10.74742			  0.18037			 -0.09123
	96.50			  10.60479			  0.16061			 -0.11240
	96.75			  10.51438			  -0.01615			 -0.00949
	97.00			  10.47031			  0.06304			 0.04994
	97.25			  10.48208			  0.09842			 0.04356
	97.50			  10.49220			  0.10203			 0.07803
	97.75			  10.46729			  0.17762			 0.06817
	98.00			  10.49544			  0.07163			 0.00070
	98.25			  10.51084			  0.05187			 0.04409
	98.50			  10.47582			  0.23791			 0.07938
	98.75			  10.47793			  0.15425			 0.00232
	99.00			  10.45597			  0.18861			 0.01831
	99.25			  10.38813			  0.14687			 0.02557
	99.50			  10.47061			  0.34510			 0.09143
	99.75			  10.43469			  0.39063			 0.21145
	100.00			  10.38632			  0.32449			 0.10218
	100.25			  10.56721			  0.41365			 0.02245
	100.50			  10.61928			  0.47618			 0.13406
	100.75			  10.47461			  0.44903			 0.11018
	101.00			  10.25259			  0.37551			 -0.01460
	101.25			  10.33017			  0.28137			 0.02879
	101.50			  10.39145			  0.14618			 0.12398
	101.75			  10.50812			  0.06252			 0.05330
	102.00			  10.52336			  0.14378			 0.11356
	102.25			  10.45688			  0.14000			 0.10675
	102.50			  10.52095			  -0.03797			 0.19474
	102.75			  10.47831			  -0.07697			 0.06179
	103.00			  10.40398			  -0.17368			 0.13502
	103.25			  10.32980			  -0.13348			 0.07248
	103.50			  10.56857			  -0.12506			 0.09857
	103.75			  10.44043			  -0.07765			 0.07456
	104.00			  10.41749			  -0.16509			 -0.06133
	104.25			  10.50322			  -0.06924			 -0.03169
	104.50			  10.44571			  -0.07456			 0.05467
	104.75			  10.54268			  -0.14499			 0.17621
	105.00			  10.65317			  -0.09998			 0.11820
	105.25			  10.62351			  -0.13554			 0.17617
	105.50			  10.64600			  -0.25098			 0.23831
	105.75			  10.65739			  -0.35594			 0.15211
	106.00			  10.58155			  -0.34357			 0.14042
	106.25			  10.61845			  -0.17694			 -0.00272
	106.50			  10.53529			  -0.26301			 -0.02855
	106.75			  10.64569			  -0.15547			 -0.01489
	107.00			  10.67301			  -0.13486			 -0.01755
	107.25			  10.57295			  -0.24892			 0.03930
	107.50			  10.50488			  -0.15822			 0.01654
	107.75			  10.55529			  -0.22075			 0.12485
	108.00			  10.56230			  -0.21164			 0.19933
	108.25			  10.54065			  -0.22642			 0.01219
	108.50			  10.50246			  -0.25717			 -0.04977
	108.75			  10.41930			  -0.14121			 -0.02497
	109.00			  10.33915			  -0.17694			 -0.10796
	109.25			  10.36587			  -0.21439			 -0.16863
	109.50			  10.47846			  -0.13915			 -0.08202
	109.75			  10.44586			  -0.02045			 -0.13986
	110.00			  10.46095			  0.02559			 -0.11426
	110.25			  10.59385			  0.23860			 -0.12326
	110.50			  10.62479			  0.09533			 -0.11731
	110.75			  10.60072			  0.01545			 -0.01238
	111.00			  10.57574			  0.07644			 -0.01567
	111.25			  10.52729			  0.17349			 0.04766
	111.50			  10.54736			  0.08193			 0.01820
	111.75			  10.61973			  0.03624			 0.00830
	112.00			  10.54321			  -0.05515			 0.12579
	112.25			  10.43522			  -0.04639			 -0.00622
	112.50			  10.48292			  -0.00379			 -0.04925
	112.75			  10.47643			  0.10083			 -0.19230
	113.00			  10.48993			  0.09997			 -0.09990
	113.25			  10.50344			  0.11285			 -0.01726
	113.50			  10.52208			  0.12814			 -0.05707
	113.75			  10.53808			  0.17023			 -0.07701
	114.00			  10.63249			  0.24015			 -0.09123
	114.25			  10.62894			  0.19222			 -0.16253
	114.50			  10.54827			  0.16903			 -0.15754
	114.75			  10.53016			  0.20046			 -0.17600
	115.00			  10.62253			  0.21988			 -0.24589
	115.25			  10.72946			  0.25715			 -0.22669
	115.50			  10.70041			  0.14738			 -0.11336
	115.75			  10.54985			  0.18724			 -0.07105
	116.00			  10.65135			  0.22812			 -0.12454
	116.25			  10.57778			  0.16490			 -0.14074
	116.50			  10.36398			  0.21558			 -0.11755
	116.75			  10.43975			  0.18157			 -0.21717
	117.00			  10.43439			  0.17985			 -0.20796
	117.25			  10.41824			  0.17160			 -0.20595
	117.50			  10.44239			  0.19273			 -0.27158
	117.75			  10.38421			  0.26385			 -0.13841
	118.00			  10.23697			  0.21558			 -0.15236
	118.25			  10.29018			  0.22331			 -0.32626
	118.50			  10.27893			  0.22692			 -0.21990
	118.75			  10.19033			  0.17641			 -0.23664
	119.00			  10.24059			  0.13965			 -0.34889
	119.25			  10.18528			  0.05376			 -0.22859
	119.50			  10.18369			  -0.03385			 -0.23249
	119.75			  10.11094			  -0.14259			 -0.23124
	120.00			  10.21063			  -0.02680			 -0.30736
	120.25			  10.35470			  -0.05893			 -0.21132
	120.50			  10.33379			  -0.09208			 -0.20194
	120.75			  10.40058			  0.01167			 -0.24799
	121.00			  10.39462			  0.02696			 -0.20292
	121.25			  10.39507			  -0.02801			 -0.17120
	121.50			  10.44254			  -0.14327			 -0.08471
	121.75			  10.44269			  -0.30578			 -0.08288
	122.00			  10.54321			  -0.21027			 -0.09555
	122.25			  10.45197			  -0.21181			 -0.13350
	122.50			  10.53121			  -0.16045			 -0.14784
	122.75			  10.50495			  -0.12077			 -0.12920
	123.00			  10.42390			  -0.19945			 -0.26840
	123.25			  10.46571			  -0.12232			 -0.23982
	123.50			  10.42194			  -0.13967			 -0.22732
	123.75			  10.50284			  -0.21422			 -0.12304
	124.00			  10.49046			  -0.05893			 0.03209
	124.25			  10.54495			  -0.06305			 -0.00268
	124.50			  10.72305			  -0.05910			 -0.03209
	124.75			  10.80372			  -0.10960			 -0.04652
	125.00			  10.77406			  -0.16561			 -0.04688
	125.25			  10.71437			  -0.05790			 -0.09719
	125.50			  10.67309			  -0.04295			 -0.06339
	125.75			  10.57393			  -0.01461			 -0.04177
	126.00			  10.54608			  -0.10084			 -0.02416
	126.25			  10.54208			  -0.09449			 0.01540
	126.50			  10.56404			  -0.00653			 -0.11957
	126.75			  10.55393			  0.04036			 -0.12123
	127.00			  10.52865			  0.18672			 -0.01529
	127.25			  10.48948			  0.18500			 -0.00810
	127.50			  10.31697			  0.25440			 -0.08104
	127.75			  10.34330			  0.11217			 -0.00685
	128.00			  10.34021			  0.08537			 0.17283
	128.25			  10.22935			  0.05703			 0.16882
	128.50			  10.28399			  0.03538			 0.25433
	128.75			  10.43960			  0.11114			 0.26692
	129.00			  10.44239			  0.25921			 0.22093
	129.25			  10.36896			  0.19617			 0.17440
	129.50			  10.40330			  0.14515			 0.12070
	129.75			  10.27938			  0.20304			 0.26748
	130.00			  10.40081			  0.12763			 0.28502
	130.25			  10.36949			  0.13227			 0.23417
	130.50			  10.32980			  0.19617			 0.11277
	130.75			  10.36338			  0.11526			 -0.12268
	131.00			  10.40315			  0.00721			 -0.13962
	131.25			  10.48707			  0.15494			 -0.24347
	131.50			  10.44186			  0.06596			 -0.05501
	131.75			  10.45469			  -0.04931			 -0.02293
	132.00			  10.47190			  0.01923			 -0.03120
	132.25			  10.29795			  0.21970			 -0.11713
	132.50			  10.24067			  0.25973			 -0.20104
	132.75			  10.28799			  0.16783			 -0.12365
	133.00			  10.29961			  0.24118			 -0.09473
	133.25			  10.26203			  0.31642			 0.05812
	133.50			  10.28791			  0.38290			 0.01833
	133.75			  10.25795			  0.43787			 -0.08444
	134.00			  10.35689			  0.28120			 -0.18308
	134.25			  10.49061			  0.13227			 -0.11697
	134.50			  10.57634			  0.08571			 -0.07669
	134.75			  10.64185			  0.18792			 -0.14638
	135.00			  10.57113			  0.26608			 -0.22539
	135.25			  10.57529			  0.07145			 -0.14425
	135.50			  10.47537			  0.00583			 -0.26441
	135.75			  10.50737			  0.03830			 -0.23410
	136.00			  10.46224			  -0.11115			 -0.23713
	136.25			  10.39371			  -0.27160			 -0.14493
	136.50			  10.33644			  -0.20116			 -0.16849
	136.75			  10.21479			  -0.15994			 -0.13679
	137.00			  10.15698			  -0.17815			 -0.17501
	137.25			  10.12098			  -0.26335			 -0.12745
	137.50			  10.30882			  -0.05532			 -0.17324
	137.75			  10.31983			  0.02748			 -0.10227
	138.00			  10.30142			  0.01545			 -0.13621
	138.25			  10.40398			  0.08159			 -0.24752
	138.50			  10.32074			  0.05153			 -0.18767
	138.75			  10.34353			  0.03761			 -0.22425
	139.00			  10.34202			  -0.06924			 -0.19358
	139.25			  10.37719			  0.03968			 -0.13839
	139.50			  10.30240			  0.10684			 -0.01594
	139.75			  10.26565			  0.00497			 -0.02981
	140.00			  10.36994			  -0.05652			 -0.01491
	140.25			  10.24475			  0.05823			 -0.00584
	140.50			  10.17796			  0.04139			 0.01334
	140.75			  10.20196			  -0.12919			 0.00789
	141.00			  10.23403			  -0.07233			 0.01950
	141.25			  10.26859			  -0.16062			 0.06466
	141.50			  10.15456			  -0.26421			 -0.03666
	141.75			  10.24595			  -0.15599			 -0.05317
	142.00			  10.27531			  0.04191			 -0.01892
	142.25			  10.22588			  -0.08744			 -0.00449
	142.50			  10.28716			  -0.14448			 -0.02571
	142.75			  10.26233			  -0.21817			 -0.07981
	143.00			  10.26074			  -0.20185			 -0.05039
	143.25			  10.20762			  -0.26163			 -0.08016
	143.50			  10.28165			  -0.27847			 -0.16159
	143.75			  10.28852			  -0.28259			 -0.32711
	144.00			  10.30821			  -0.27280			 -0.34564
	144.25			  10.35372			  -0.14619			 -0.22225
	144.50			  10.38353			  -0.08212			 -0.22181
	144.75			  10.27863			  -0.04484			 -0.09934
	145.00			  10.38066			  0.06407			 -0.06863
	145.25			  10.39387			  0.16937			 -0.10989
	145.50			  10.42828			  0.15906			 -0.23899
	145.75			  10.47522			  0.10427			 -0.15608
	146.00			  10.36104			  0.08262			 -0.08731
	146.25			  10.38104			  0.08296			 -0.28995
	146.50			  10.16686			  0.12471			 -0.21473
	146.75			  10.05306			  0.12144			 -0.09502
	147.00			  10.08612			  0.23465			 -0.05225
	147.25			  10.08574			  0.22829			 -0.06509
	147.50			  10.13660			  0.33961			 -0.03832
	147.75			  10.17698			  0.21283			 -0.04199
	148.00			  10.11502			  0.10890			 -0.02206
	148.25			  10.09879			  0.20819			 0.03574
	148.50			  10.06453			  0.35009			 -0.23874
	148.75			  10.07751			  0.13055			 -0.26444
	149.00			  10.11698			  0.10598			 -0.32557
	149.25			  10.10008			  0.09018			 -0.12828
	149.50			  10.04023			  0.25767			 -0.15187
	149.75			  10.10204			  0.20579			 -0.18744
	150.00			  10.12860			  0.11921			 -0.16307
	150.25			  10.15547			  0.14086			 0.05747
	150.50			  10.10996			  0.11028			 -0.05732
	150.75			  10.09313			  -0.05807			 0.09420
	151.00			  10.15313			  -0.03574			 0.18533
	151.25			  10.23026			  -0.02852			 0.08466
	151.50			  10.33764			  0.01459			 -0.07318
	151.75			  10.33787			  0.22211			 -0.01110
	152.00			  10.16075			  0.27502			 -0.14625
	152.25			  10.09155			  0.15065			 -0.03991
	152.50			  10.20060			  0.08125			 -0.08886
	152.75			  10.20188			  0.18947			 -0.08910
	153.00			  10.14543			  0.12488			 0.02823
	153.25			  10.05842			  0.13295			 -0.02235
	153.50			  10.15041			  0.20424			 -0.00866
	153.75			  10.19818			  0.18621			 0.11412
	154.00			  10.19999			  0.11423			 0.18840
	154.25			  10.30519			  0.14515			 0.08717
	154.50			  10.30550			  0.15168			 0.06098
	154.75			  10.39024			  0.30937			 -0.00284
	155.00			  10.33138			  0.35765			 -0.03462
	155.25			  10.35062			  0.37671			 -0.08462
	155.50			  10.36285			  0.58354			 0.00386
	155.75			  10.39304			  0.60484			 -0.08993
	156.00			  10.36398			  0.48373			 -0.07875
	156.25			  10.37983			  0.37671			 -0.06200
	156.50			  10.41364			  0.40008			 0.15966
	156.75			  10.35153			  0.37276			 0.12590
	157.00			  10.33130			  0.32999			 0.13323
	157.25			  10.31289			  0.26557			 0.22279
	157.50			  10.27289			  0.22331			 0.09795
	157.75			  10.18656			  0.26007			 0.16020
	158.00			  10.25071			  0.21421			 0.23078
	158.25			  10.22580			  0.20545			 0.31642
	158.50			  10.26112			  0.14859			 0.25686
	158.75			  10.30949			  0.01940			 0.15670
	159.00			  10.35576			  -0.08281			 0.15516
	159.25			  10.27833			  -0.12025			 0.24633
	159.50			  10.23063			  -0.19704			 -0.04363
	159.75			  10.22694			  -0.31592			 -0.05357
	160.00			  10.37613			  -0.33533			 0.00852
	160.25			  10.34074			  -0.22401			 0.05653
	160.50			  10.26723			  -0.39597			 0.14286
	160.75			  10.28867			  -0.34718			 0.13314
	161.00			  10.22512			  -0.36178			 0.14824
	161.25			  10.29772			  -0.29891			 0.25000
	161.50			  10.33349			  -0.19086			 0.24292
	161.75			  10.23237			  -0.17179			 0.30377
	162.00			  10.25093			  -0.20271			 0.35874
	162.25			  10.11042			  -0.24239			 0.30849
	162.50			  10.08619			  -0.11390			 0.15816
	162.75			  10.03276			  -0.08676			 0.16161
	163.00			  9.92304			  -0.14826			 0.03274
	163.25			  10.03246			  0.00532			 0.03193
	163.50			  10.03072			  -0.01701			 0.04667
	163.75			  9.99435			  0.02164			 0.04264
	164.00			  10.01707			  0.05033			 0.10312
	164.25			  9.99171			  0.04603			 0.08489
	164.50			  10.04401			  0.03590			 0.17610