--------------TurbSim v2.00.* User Time Series Input File-----------------------
     Time series input from low-res turbsim run
--------------------------------------------------------------------------------
          3 nComp - Number of velocity components in the file
          1 nPoints - Number of time series points contained in this file (-)
          1 RefPtID - Index of the reference point (1-nPoints)
     Pointyi Pointzi ! nPoints listed in order of increasing height
       (m)     (m)
       -3.86487   94.00000
--------Time Series-------------------------------------------------------------
Elapsed Time         Point01u             Point01v           Point01w
         (s)            (m/s)                (m/s)              (m/s)
	0.00			  9.74881			  0.29557			 0.01549
	0.25			  9.65192			  0.27034			 0.03250
	0.50			  9.75047			  0.28786			 -0.06885
	0.75			  9.63858			  0.16625			 -0.09873
	1.00			  9.64434			  0.19288			 -0.03433
	1.25			  9.66464			  0.32957			 0.12377
	1.50			  9.64207			  0.45784			 0.13743
	1.75			  9.72131			  0.31765			 0.17862
	2.00			  9.61517			  0.29470			 0.15955
	2.25			  9.65207			  0.32431			 0.15679
	2.50			  9.56192			  0.43331			 0.13914
	2.75			  9.55260			  0.47116			 0.04536
	3.00			  9.42253			  0.25054			 -0.11673
	3.25			  9.47260			  0.18850			 -0.06009
	3.50			  9.49707			  0.23704			 0.02740
	3.75			  9.51897			  0.35621			 0.06119
	4.00			  9.54927			  0.32957			 0.08412
	4.25			  9.53927			  0.33640			 0.14789
	4.50			  9.44465			  0.35182			 0.00393
	4.75			  9.37753			  0.30977			 0.00364
	5.00			  9.40132			  0.23687			 0.00942
	5.25			  9.40624			  0.21409			 0.08917
	5.50			  9.44450			  0.39546			 0.04651
	5.75			  9.38488			  0.27087			 0.04963
	6.00			  9.30640			  0.23950			 -0.01158
	6.25			  9.36033			  0.13576			 0.03363
	6.50			  9.41223			  -0.00689			 -0.03482
	6.75			  9.38920			  -0.09766			 -0.06845
	7.00			  9.27185			  -0.07523			 0.03547
	7.25			  9.18534			  -0.05140			 0.15708
	7.50			  9.22579			  0.08056			 0.06076
	7.75			  9.19632			  0.04779			 -0.00479
	8.00			  9.11004			  0.04463			 -0.01151
	8.25			  9.20435			  0.12191			 0.04298
	8.50			  9.29564			  0.06409			 0.05590
	8.75			  9.26587			  0.07267			 -0.02475
	9.00			  9.27450			  0.14452			 0.00605
	9.25			  9.34791			  0.12507			 0.01643
	9.50			  9.29094			  -0.04719			 -0.04927
	9.75			  9.22746			  -0.01267			 0.02565
	10.00			  9.31640			  -0.10782			 -0.03873
	10.25			  9.21769			  -0.13831			 0.03064
	10.50			  9.13405			  -0.06156			 0.07755
	10.75			  9.23511			  0.04498			 0.09353
	11.00			  9.28117			  0.05515			 0.08643
	11.25			  9.37245			  0.16485			 0.07097
	11.50			  9.29723			  0.34201			 0.00400
	11.75			  9.29405			  0.29715			 -0.01753
	12.00			  9.32814			  0.08529			 -0.16457
	12.25			  9.38745			  0.05760			 -0.20534
	12.50			  9.37874			  -0.04123			 -0.24776
	12.75			  9.37973			  -0.15461			 -0.24025
	13.00			  9.44389			  -0.12692			 -0.38205
	13.25			  9.47692			  -0.21051			 -0.33239
	13.50			  9.41026			  -0.08855			 -0.24524
	13.75			  9.28518			  -0.19439			 -0.01304
	14.00			  9.34526			  -0.28569			 0.08405
	14.25			  9.39889			  -0.18650			 0.03055
	14.50			  9.40124			  -0.15128			 -0.08636
	14.75			  9.47200			  -0.02879			 -0.06703
	15.00			  9.59252			  0.04902			 0.01711
	15.25			  9.51548			  0.02781			 -0.01890
	15.50			  9.54374			  0.01642			 -0.03471
	15.75			  9.48465			  0.07407			 -0.00009
	16.00			  9.49025			  0.18850			 -0.14809
	16.25			  9.40594			  0.17203			 -0.11201
	16.50			  9.34617			  0.27139			 0.02491
	16.75			  9.40965			  0.21409			 0.02585
	17.00			  9.51525			  0.09440			 0.04208
	17.25			  9.52571			  0.22776			 -0.09331
	17.50			  9.61661			  0.10860			 -0.18675
	17.75			  9.72047			  0.28015			 -0.08432
	18.00			  9.83593			  0.29487			 -0.10464
	18.25			  9.75608			  0.37250			 0.06656
	18.50			  9.74100			  0.33956			 0.08396
	18.75			  9.71926			  0.30066			 -0.00701
	19.00			  9.78070			  0.20340			 -0.07103
	19.25			  9.70654			  0.28559			 -0.05501
	19.50			  9.64987			  0.32081			 -0.08857
	19.75			  9.60517			  0.24843			 -0.03947
	20.00			  9.58995			  0.34219			 0.00949
	20.25			  9.73866			  0.33833			 -0.16490
	20.50			  9.67101			  0.37478			 -0.09252
	20.75			  9.66146			  0.22092			 -0.03136
	21.00			  9.59608			  0.19674			 -0.04583
	21.25			  9.48185			  0.06005			 -0.19294
	21.50			  9.60010			  0.04902			 -0.05498
	21.75			  9.48192			  0.03342			 0.04467
	22.00			  9.59608			  -0.01390			 -0.02122
	22.25			  9.63987			  0.00696			 -0.08405
	22.50			  9.67745			  -0.01004			 -0.21038
	22.75			  9.58449			  0.04201			 -0.08697
	23.00			  9.67290			  -0.00934			 -0.13663
	23.25			  9.73441			  -0.06769			 -0.02956
	23.50			  9.72313			  0.11806			 -0.04222
	23.75			  9.82971			  0.13365			 -0.08250
	24.00			  9.84896			  0.08091			 -0.17556
	24.25			  9.91463			  0.04113			 -0.09915
	24.50			  10.00872			  0.13681			 -0.05964
	24.75			  9.88009			  0.06111			 0.06276
	25.00			  9.77305			  0.07407			 0.10041
	25.25			  9.77525			  -0.03089			 0.05737
	25.50			  9.85539			  -0.15338			 0.09569
	25.75			  9.95160			  -0.24924			 0.05779
	26.00			  9.92289			  -0.19036			 0.02403
	26.25			  9.94092			  -0.21314			 -0.08809
	26.50			  10.09039			  -0.26168			 -0.03974
	26.75			  10.05259			  -0.20035			 -0.03540
	27.00			  10.07387			  -0.19106			 0.07539
	27.25			  9.97630			  -0.20035			 0.11887
	27.50			  9.84729			  -0.14234			 0.12577
	27.75			  9.91948			  -0.30882			 0.17538
	28.00			  9.91320			  -0.42886			 0.15605
	28.25			  9.93335			  -0.45514			 0.12752
	28.50			  10.00516			  -0.44165			 0.21883
	28.75			  10.03228			  -0.35018			 0.19988
	29.00			  10.07175			  -0.34755			 0.12046
	29.25			  10.03630			  -0.27605			 0.10169
	29.50			  9.90107			  -0.32266			 0.03210
	29.75			  9.81464			  -0.28902			 -0.01407
	30.00			  9.87532			  -0.28832			 0.01744
	30.25			  9.90357			  -0.35683			 0.20568
	30.50			  9.89486			  -0.37313			 0.13148
	30.75			  9.99259			  -0.32494			 0.05318
	31.00			  10.06758			  -0.39801			 0.06971
	31.25			  10.17198			  -0.41589			 0.10808
	31.50			  10.18364			  -0.49930			 0.12536
	31.75			  10.02887			  -0.42185			 0.16407
	32.00			  10.02857			  -0.36104			 -0.04152
	32.25			  10.08796			  -0.32389			 -0.05069
	32.50			  10.06183			  -0.34071			 0.14957
	32.75			  10.12607			  -0.36402			 0.30079
	33.00			  10.06175			  -0.26466			 0.39452
	33.25			  10.08577			  -0.23382			 0.19123
	33.50			  10.10410			  -0.11641			 0.10309
	33.75			  10.11425			  -0.21962			 -0.01866
	34.00			  10.08016			  -0.48914			 -0.00600
	34.25			  10.02296			  -0.65456			 0.00384
	34.50			  10.00592			  -0.46723			 0.01886
	34.75			  9.99986			  -0.50228			 -0.03572
	35.00			  10.10145			  -0.38592			 0.03725
	35.25			  10.04902			  -0.30461			 -0.12404
	35.50			  10.14016			  -0.23031			 0.04233
	35.75			  10.01456			  -0.30076			 0.03545
	36.00			  10.05024			  -0.21454			 -0.00434
	36.25			  9.99524			  -0.20543			 0.01819
	36.50			  10.02425			  -0.29620			 0.04255
	36.75			  9.86812			  -0.21682			 -0.01720
	37.00			  9.90494			  -0.14042			 -0.07899
	37.25			  9.98653			  -0.20806			 0.01933
	37.50			  9.97706			  -0.24346			 -0.07364
	37.75			  9.91797			  -0.27728			 -0.05889
	38.00			  10.10849			  -0.37190			 -0.11502
	38.25			  10.01789			  -0.38750			 -0.17351
	38.50			  9.90941			  -0.21472			 -0.12064
	38.75			  9.82661			  -0.06016			 -0.06771
	39.00			  9.91304			  -0.14462			 -0.18680
	39.25			  9.94880			  -0.10274			 -0.19918
	39.50			  9.96130			  -0.11360			 -0.13377
	39.75			  10.05395			  -0.15654			 0.08427
	40.00			  10.04607			  -0.22348			 0.06424
	40.25			  10.13417			  -0.21857			 -0.06353
	40.50			  10.26568			  -0.16074			 0.01070
	40.75			  10.14728			  -0.19562			 0.12860
	41.00			  10.04622			  -0.22471			 0.06188
	41.25			  10.05895			  -0.10239			 0.06258
	41.50			  10.13879			  -0.21927			 -0.03709
	41.75			  10.09008			  -0.17248			 0.09754
	42.00			  10.01577			  -0.23837			 0.09198
	42.25			  10.05736			  -0.27202			 0.07998
	42.50			  10.08599			  -0.25327			 -0.03765
	42.75			  10.15599			  -0.20753			 0.01897
	43.00			  10.25758			  -0.20175			 -0.06402
	43.25			  10.21273			  -0.23031			 -0.08598
	43.50			  10.23334			  -0.21682			 0.08755
	43.75			  10.19296			  -0.32406			 0.00169
	44.00			  10.25015			  -0.13200			 0.01054
	44.25			  10.22872			  -0.00408			 -0.02736
	44.50			  10.26621			  -0.05473			 0.05186
	44.75			  10.23425			  0.01449			 0.07380
	45.00			  10.37598			  -0.06822			 0.11287
	45.25			  10.31023			  -0.06068			 0.10163
	45.50			  10.27137			  -0.16267			 0.10536
	45.75			  10.19629			  -0.15146			 0.13384
	46.00			  10.38636			  -0.23136			 0.16855
	46.25			  10.33939			  -0.15093			 0.19004
	46.50			  10.40613			  -0.30251			 0.21625
	46.75			  10.26091			  -0.34194			 0.27530
	47.00			  10.23273			  -0.32074			 0.21910
	47.25			  10.33409			  -0.33055			 0.32322
	47.50			  10.40326			  -0.28534			 0.23931
	47.75			  10.46863			  -0.33738			 0.24524
	48.00			  10.60348			  -0.36104			 0.04404
	48.25			  10.53704			  -0.48598			 0.00942
	48.50			  10.52257			  -0.38768			 0.09540
	48.75			  10.46204			  -0.37138			 -0.01196
	49.00			  10.39250			  -0.31670			 0.00575
	49.25			  10.41788			  -0.30356			 -0.02821
	49.50			  10.36871			  -0.23522			 0.05112
	49.75			  10.44333			  -0.25204			 -0.07773
	50.00			  10.45007			  -0.08364			 -0.00827
	50.25			  10.46795			  0.07390			 -0.00387
	50.50			  10.39439			  0.02115			 0.07155
	50.75			  10.34432			  -0.01775			 0.06573
	51.00			  10.39356			  0.01817			 -0.00324
	51.25			  10.31621			  0.01747			 0.04455
	51.50			  10.16607			  0.02133			 0.04046
	51.75			  10.11486			  0.02729			 0.10981
	52.00			  10.24531			  0.10071			 0.04395
	52.25			  10.22303			  -0.00969			 0.03666
	52.50			  10.20856			  -0.06419			 0.02614
	52.75			  10.19554			  0.00959			 0.05766
	53.00			  10.18879			  0.07477			 0.03383
	53.25			  10.19690			  0.17764			 0.04570
	53.50			  10.16872			  0.11964			 -0.04988
	53.75			  10.19167			  0.02308			 0.02345
	54.00			  10.07774			  -0.07295			 0.13557
	54.25			  10.16251			  0.01852			 0.02212
	54.50			  10.18584			  -0.07891			 -0.20440
	54.75			  10.12683			  -0.22821			 -0.10585
	55.00			  10.17470			  -0.28201			 0.05505
	55.25			  10.25925			  -0.31092			 0.06159
	55.50			  10.18538			  -0.27360			 0.09079
	55.75			  10.10364			  -0.11886			 -0.00090
	56.00			  10.17819			  -0.00706			 -0.04806
	56.25			  10.14629			  -0.12657			 0.08933
	56.50			  10.32553			  -0.15496			 0.12586
	56.75			  10.38136			  -0.11045			 0.26365
	57.00			  10.14395			  -0.19562			 0.23785
	57.25			  10.12629			  -0.02073			 0.04386
	57.50			  9.98471			  -0.14550			 -0.03700
	57.75			  9.97713			  -0.15093			 0.00101
	58.00			  10.00175			  -0.19439			 0.04066
	58.25			  10.08577			  -0.13183			 0.14625
	58.50			  9.99266			  -0.06524			 0.10545
	58.75			  10.01039			  -0.06874			 0.22040
	59.00			  10.04675			  -0.30339			 0.21609
	59.25			  10.00683			  -0.31793			 0.32169
	59.50			  9.95592			  -0.32739			 0.21910
	59.75			  9.89994			  -0.37611			 0.08301
	60.00			  9.85805			  -0.25432			 0.10967
	60.25			  9.85282			  -0.38487			 0.07173
	60.50			  9.84138			  -0.40573			 -0.04494
	60.75			  9.86926			  -0.35140			 -0.10394
	61.00			  9.87592			  -0.21226			 -0.01895
	61.25			  10.03448			  -0.21279			 0.13921
	61.50			  9.99850			  -0.15268			 0.11165
	61.75			  9.96910			  -0.14918			 0.17194
	62.00			  10.06342			  -0.11974			 0.19098
	62.25			  9.95009			  -0.16951			 0.22339
	62.50			  9.87365			  -0.18966			 0.23355
	62.75			  9.87426			  -0.28586			 0.24461
	63.00			  9.85524			  -0.14059			 0.07600
	63.25			  9.99327			  -0.07453			 0.15708
	63.50			  10.13410			  -0.16512			 0.08367
	63.75			  10.06880			  -0.25362			 0.12811
	64.00			  9.99774			  -0.15514			 0.18853
	64.25			  10.13402			  -0.01635			 0.22092
	64.50			  10.25311			  -0.08452			 0.08991
	64.75			  10.21205			  -0.05437			 0.09421
	65.00			  10.14448			  -0.18177			 -0.01048
	65.25			  10.16432			  -0.28551			 0.07753
	65.50			  10.26318			  -0.36104			 0.13971
	65.75			  10.18697			  -0.30619			 0.10250
	66.00			  10.34879			  -0.33020			 0.07065
	66.25			  10.34477			  -0.33686			 0.07031
	66.50			  10.20016			  -0.32599			 -0.02113
	66.75			  10.10387			  -0.43657			 0.03338
	67.00			  10.15523			  -0.47407			 0.07701
	67.25			  10.30182			  -0.35946			 0.19494
	67.50			  10.28303			  -0.23066			 0.17259
	67.75			  10.22993			  -0.29638			 0.00787
	68.00			  10.32568			  -0.26974			 -0.01331
	68.25			  10.22099			  -0.19036			 -0.08218
	68.50			  10.29023			  -0.28446			 0.00465
	68.75			  10.27023			  -0.25274			 -0.04889
	69.00			  10.16629			  -0.23154			 0.03851
	69.25			  10.13842			  -0.16565			 0.06472
	69.50			  10.20932			  -0.22961			 0.11720
	69.75			  10.31985			  -0.23925			 0.01843
	70.00			  10.39273			  -0.08837			 0.10686
	70.25			  10.42121			  -0.16302			 0.06863
	70.50			  10.32902			  -0.18528			 -0.18246
	70.75			  10.43651			  -0.14620			 -0.14364
	71.00			  10.36591			  -0.09976			 0.00283
	71.25			  10.36417			  -0.11571			 -0.04480
	71.50			  10.38015			  -0.16180			 -0.02567
	71.75			  10.45674			  -0.11606			 0.00283
	72.00			  10.33485			  -0.11080			 -0.10628
	72.25			  10.26818			  -0.12237			 -0.11516
	72.50			  10.29296			  -0.10449			 -0.00785
	72.75			  10.26796			  -0.14340			 0.12505
	73.00			  10.26470			  -0.07453			 0.04541
	73.25			  10.16675			  -0.05490			 0.07868
	73.50			  10.21250			  -0.04737			 0.08034
	73.75			  10.20478			  -0.13533			 -0.09540
	74.00			  10.12031			  -0.21717			 0.00827
	74.25			  10.09387			  -0.24626			 -0.00088
	74.50			  10.08130			  -0.16320			 -0.04752
	74.75			  10.09561			  -0.08311			 -0.11532
	75.00			  10.14804			  -0.08241			 -0.03527
	75.25			  10.06849			  -0.17599			 0.05132
	75.50			  10.07349			  0.02869			 -0.14042
	75.75			  10.32379			  -0.01425			 -0.04808
	76.00			  10.17463			  -0.03965			 0.08351
	76.25			  10.02395			  -0.16337			 -0.01899
	76.50			  10.07713			  -0.34439			 -0.05345
	76.75			  10.10266			  -0.27219			 -0.03896
	77.00			  10.09001			  -0.24854			 0.04628
	77.25			  10.21993			  -0.17687			 0.04003
	77.50			  10.12061			  -0.25572			 0.08609
	77.75			  10.04221			  -0.25222			 -0.02439
	78.00			  10.17311			  -0.18720			 -0.03927
	78.25			  10.15682			  -0.32214			 0.03293
	78.50			  10.31553			  -0.34352			 0.08585
	78.75			  10.29977			  -0.53417			 0.01245
	79.00			  10.25167			  -0.67542			 0.12822
	79.25			  10.21281			  -0.73149			 0.05746
	79.50			  10.22250			  -0.75480			 0.12008
	79.75			  10.24682			  -0.82612			 0.21631
	80.00			  10.23849			  -0.84540			 0.13845
	80.25			  10.14629			  -0.72273			 -0.06701
	80.50			  10.17144			  -0.84224			 0.02425
	80.75			  10.26212			  -0.79843			 0.01825
	81.00			  10.25614			  -0.78354			 0.15859
	81.25			  10.16432			  -0.72255			 0.32904
	81.50			  10.08569			  -0.74236			 0.32147
	81.75			  10.08478			  -0.86800			 0.35550
	82.00			  9.99675			  -0.85854			 0.22982
	82.25			  9.93441			  -0.81613			 0.10120
	82.50			  9.89312			  -0.70678			 -0.03028
	82.75			  9.82638			  -0.65631			 -0.03331
	83.00			  9.88479			  -0.57903			 0.06067
	83.25			  9.99622			  -0.55152			 0.17518
	83.50			  10.09910			  -0.67314			 0.16571
	83.75			  10.07221			  -0.58797			 0.19503
	84.00			  10.13986			  -0.65053			 0.12228
	84.25			  10.03774			  -0.58622			 0.00906
	84.50			  10.02736			  -0.56694			 0.10583
	84.75			  10.19000			  -0.39661			 0.15191
	85.00			  10.20243			  -0.18335			 -0.02221
	85.25			  10.25159			  -0.30742			 -0.04048
	85.50			  10.24258			  -0.31250			 -0.01879
	85.75			  10.25076			  -0.29953			 0.16057
	86.00			  10.25978			  -0.19789			 0.04138
	86.25			  10.27818			  -0.15706			 0.04478
	86.50			  10.28387			  -0.16460			 -0.04026
	86.75			  10.35909			  -0.17984			 0.09659
	87.00			  10.38917			  -0.06173			 0.04372
	87.25			  10.43447			  -0.10432			 0.05442
	87.50			  10.40810			  -0.07102			 -0.00953
	87.75			  10.33159			  -0.10151			 0.02327
	88.00			  10.33902			  -0.15111			 0.06393
	88.25			  10.39682			  -0.19281			 -0.04199
	88.50			  10.36424			  -0.18107			 -0.04437
	88.75			  10.39712			  -0.29813			 0.03502
	89.00			  10.33947			  -0.42956			 -0.04489
	89.25			  10.37985			  -0.32634			 -0.08805
	89.50			  10.21493			  -0.19421			 -0.20534
	89.75			  10.23872			  -0.08452			 -0.10868
	90.00			  10.28584			  -0.12657			 -0.12919
	90.25			  10.28174			  -0.11676			 -0.17176
	90.50			  10.32205			  -0.08469			 -0.24239
	90.75			  10.24470			  -0.09468			 -0.16879
	91.00			  10.13879			  0.08441			 -0.05712
	91.25			  10.35348			  0.13208			 -0.10390
	91.50			  10.40606			  0.09317			 -0.23774
	91.75			  10.32841			  0.09388			 -0.16560
	92.00			  10.31796			  0.05077			 -0.17401
	92.25			  10.45204			  -0.03562			 -0.23632
	92.50			  10.44295			  -0.01495			 -0.17374
	92.75			  10.35409			  0.06321			 -0.15585
	93.00			  10.35076			  0.04095			 -0.12813
	93.25			  10.31803			  0.07845			 -0.24832
	93.50			  10.26447			  0.12647			 -0.19062
	93.75			  10.12523			  -0.01898			 -0.17210
	94.00			  10.13599			  -0.12920			 -0.06094
	94.25			  10.22887			  -0.32126			 -0.18129
	94.50			  10.09289			  -0.39363			 -0.10963
	94.75			  10.15948			  -0.18931			 0.03729
	95.00			  10.35538			  -0.18300			 0.06406
	95.25			  10.34811			  -0.29585			 -0.01888
	95.50			  10.45477			  -0.19930			 -0.05154
	95.75			  10.49992			  -0.15724			 -0.08605
	96.00			  10.58734			  -0.13814			 0.00389
	96.25			  10.56030			  -0.07698			 -0.13083
	96.50			  10.54295			  -0.06945			 -0.06625
	96.75			  10.64976			  -0.13849			 -0.10729
	97.00			  10.60636			  -0.23382			 -0.25266
	97.25			  10.52227			  -0.18913			 -0.27788
	97.50			  10.52439			  -0.11711			 -0.34491
	97.75			  10.51893			  0.00783			 -0.15411
	98.00			  10.52310			  -0.14427			 -0.24075
	98.25			  10.47257			  0.12349			 -0.37515
	98.50			  10.46091			  0.19832			 -0.39671
	98.75			  10.44075			  0.22110			 -0.34251
	99.00			  10.43136			  0.10176			 -0.29288
	99.25			  10.45886			  -0.10922			 -0.16841
	99.50			  10.48530			  -0.12096			 -0.04855
	99.75			  10.33644			  -0.11080			 -0.04739
	100.00			  10.34409			  -0.16320			 -0.03237
	100.25			  10.26947			  -0.21612			 0.03722
	100.50			  10.23016			  -0.16477			 0.03223
	100.75			  10.05857			  -0.09240			 0.03567
	101.00			  10.10236			  -0.03633			 -0.03318
	101.25			  10.09804			  -0.21367			 -0.08371
	101.50			  10.06607			  -0.27833			 0.09174
	101.75			  10.17144			  -0.34141			 0.11907
	102.00			  10.17834			  -0.47074			 0.09810
	102.25			  10.16379			  -0.44831			 0.11547
	102.50			  10.20697			  -0.33090			 0.18125
	102.75			  10.19485			  -0.34141			 0.21317
	103.00			  10.24023			  -0.17196			 0.15216
	103.25			  10.41250			  -0.16916			 0.16441
	103.50			  10.40788			  -0.26729			 0.08684
	103.75			  10.35879			  -0.39363			 0.18833
	104.00			  10.26788			  -0.39644			 0.15151
	104.25			  10.35720			  -0.43657			 0.05826
	104.50			  10.39932			  -0.39591			 -0.08663
	104.75			  10.42151			  -0.26028			 0.00315
	105.00			  10.41523			  -0.14935			 0.00856
	105.25			  10.43939			  -0.33318			 0.10630
	105.50			  10.40954			  -0.29270			 0.14099
	105.75			  10.29750			  -0.23347			 0.08250
	106.00			  10.25871			  -0.18177			 0.21737
	106.25			  10.32235			  -0.30163			 0.19066
	106.50			  10.25455			  -0.21559			 0.18482
	106.75			  10.24455			  -0.38592			 0.11433
	107.00			  10.14478			  -0.54504			 0.07065
	107.25			  9.99168			  -0.48090			 0.12327
	107.50			  9.96206			  -0.36034			 0.13146
	107.75			  10.11243			  -0.51805			 0.07020
	108.00			  10.19008			  -0.54031			 -0.07317
	108.25			  10.23909			  -0.64159			 -0.05584
	108.50			  10.32462			  -0.47442			 -0.10468
	108.75			  10.21872			  -0.33405			 -0.18527
	109.00			  10.14735			  -0.39556			 0.02976
	109.25			  10.15008			  -0.49036			 0.07425
	109.50			  10.21750			  -0.56975			 0.20116
	109.75			  10.18713			  -0.46478			 0.28193
	110.00			  10.20379			  -0.44603			 0.16108
	110.25			  10.33349			  -0.47056			 0.09018
	110.50			  10.26985			  -0.48195			 0.05622
	110.75			  10.17682			  -0.43096			 -0.02974
	111.00			  10.11652			  -0.38557			 -0.00362
	111.25			  10.21326			  -0.52366			 0.02059
	111.50			  10.33811			  -0.41273			 0.05078
	111.75			  10.33712			  -0.41449			 0.07580
	112.00			  10.25212			  -0.35981			 0.07063
	112.25			  10.19357			  -0.36752			 -0.02976
	112.50			  10.08857			  -0.34439			 -0.05280
	112.75			  10.05857			  -0.15181			 -0.06685
	113.00			  10.06054			  -0.26641			 -0.00751
	113.25			  10.11576			  -0.39889			 0.12303
	113.50			  10.12493			  -0.32424			 0.17270
	113.75			  10.10031			  -0.42605			 0.19089
	114.00			  10.33614			  -0.37558			 0.20213
	114.25			  10.26962			  -0.22015			 0.16356
	114.50			  10.24644			  -0.12482			 -0.04694
	114.75			  10.23819			  -0.22208			 -0.00762
	115.00			  10.07054			  -0.31232			 -0.05363
	115.25			  10.11243			  -0.29866			 -0.01632
	115.50			  10.05569			  -0.24275			 -0.12246
	115.75			  10.20470			  -0.21840			 -0.06002
	116.00			  10.28068			  -0.16968			 -0.21494
	116.25			  10.28099			  -0.17827			 -0.23675
	116.50			  10.07918			  -0.17441			 -0.13098
	116.75			  10.03986			  -0.04684			 -0.17176
	117.00			  10.09599			  -0.13814			 -0.15315
	117.25			  10.17129			  -0.11115			 -0.05303
	117.50			  10.20372			  -0.13989			 0.05298
	117.75			  10.29705			  -0.18720			 -0.01717
	118.00			  10.24902			  -0.23995			 0.11824
	118.25			  10.19735			  -0.23960			 0.06245
	118.50			  10.05758			  -0.18966			 -0.07960
	118.75			  10.15485			  -0.13183			 -0.12878
	119.00			  10.13743			  -0.14304			 -0.03336
	119.25			  10.10622			  -0.19141			 -0.02421
	119.50			  10.15213			  -0.18177			 -0.05258
	119.75			  10.26099			  -0.26974			 -0.07162
	120.00			  10.16349			  -0.21279			 -0.16254
	120.25			  10.05933			  -0.15111			 -0.17979
	120.50			  10.10349			  -0.19491			 -0.08101
	120.75			  10.14501			  -0.24311			 -0.07297
	121.00			  10.09175			  -0.33686			 -0.05017
	121.25			  9.99009			  -0.24416			 -0.09001
	121.50			  10.05062			  -0.18685			 -0.00733
	121.75			  10.03554			  -0.22839			 0.04986
	122.00			  10.06137			  -0.22190			 -0.04561
	122.25			  10.08531			  -0.23627			 -0.12233
	122.50			  10.22887			  -0.21787			 -0.07148
	122.75			  10.11652			  -0.19211			 -0.01778
	123.00			  10.21235			  -0.22698			 -0.12078
	123.25			  10.29947			  -0.28639			 -0.18738
	123.50			  10.37485			  -0.40941			 -0.11934
	123.75			  10.29106			  -0.37716			 -0.09277
	124.00			  10.20258			  -0.33405			 -0.17623
	124.25			  10.16682			  -0.22348			 -0.05485
	124.50			  10.03728			  -0.30584			 -0.01063
	124.75			  10.03236			  -0.13165			 0.02585
	125.00			  10.08463			  -0.12202			 -0.05168
	125.25			  10.13198			  -0.01179			 -0.01814
	125.50			  10.17432			  -0.01968			 0.01524
	125.75			  10.07364			  -0.16548			 0.08596
	126.00			  10.16182			  -0.26799			 0.01814
	126.25			  10.04849			  -0.35771			 -0.07809
	126.50			  10.01796			  -0.27885			 -0.11010
	126.75			  10.05190			  -0.31688			 -0.01641
	127.00			  10.10334			  -0.29655			 0.07443
	127.25			  10.13531			  -0.14164			 -0.03606
	127.50			  10.19447			  -0.22032			 0.07191
	127.75			  10.26955			  -0.42185			 -0.01713
	128.00			  10.25144			  -0.40362			 0.06885
	128.25			  10.35841			  -0.45742			 0.15843
	128.50			  10.35462			  -0.41379			 0.22789
	128.75			  10.31394			  -0.43955			 0.05813
	129.00			  10.19311			  -0.46390			 0.06723
	129.25			  10.19690			  -0.35175			 -0.10722
	129.50			  10.08402			  -0.40240			 -0.10311
	129.75			  10.00903			  -0.36682			 -0.20429
	130.00			  9.96675			  -0.40310			 -0.12824
	130.25			  10.12963			  -0.35894			 -0.08782
	130.50			  10.14955			  -0.20087			 0.02942
	130.75			  9.92926			  -0.22453			 0.08645
	131.00			  9.84896			  -0.23750			 -0.06049
	131.25			  9.71350			  -0.18388			 -0.07351
	131.50			  9.70351			  -0.12815			 -0.11302
	131.75			  9.70457			  -0.20841			 -0.09432
	132.00			  9.70191			  -0.11255			 -0.03576
	132.25			  9.70790			  -0.05245			 -0.14328
	132.50			  9.70434			  0.05935			 -0.28042
	132.75			  9.83388			  -0.08907			 -0.22719
	133.00			  9.78191			  -0.23767			 -0.09023
	133.25			  9.78729			  -0.30321			 -0.05471
	133.50			  9.75547			  -0.33178			 0.02675
	133.75			  9.75865			  -0.32459			 0.09126
	134.00			  9.90539			  -0.31075			 0.11727
	134.25			  9.84789			  -0.31916			 0.15041
	134.50			  9.88539			  -0.28516			 0.14937
	134.75			  10.02281			  -0.18931			 0.15647
	135.00			  9.97872			  -0.11290			 0.22013
	135.25			  9.89395			  -0.16880			 0.13159
	135.50			  9.88456			  -0.17476			 -0.05323
	135.75			  9.99236			  0.05234			 -0.00492
	136.00			  10.02266			  -0.05105			 0.01097
	136.25			  9.99630			  -0.08714			 0.01484
	136.50			  10.00266			  -0.03808			 0.05525
	136.75			  9.97963			  0.00345			 0.11228
	137.00			  9.93797			  -0.04246			 0.15935
	137.25			  9.76146			  -0.02861			 0.10877
	137.50			  9.75282			  -0.01687			 0.08719
	137.75			  9.79441			  -0.06033			 0.08158
	138.00			  9.89130			  -0.08154			 0.15623
	138.25			  9.81812			  -0.07207			 0.21114
	138.50			  9.75964			  -0.10397			 0.24369
	138.75			  9.81706			  -0.27763			 0.11880
	139.00			  9.83191			  -0.31670			 0.14463
	139.25			  9.79744			  -0.31355			 0.15456
	139.50			  9.72381			  -0.26413			 0.09702
	139.75			  9.70419			  -0.29515			 -0.00868
	140.00			  9.66252			  -0.31075			 0.04217
	140.25			  9.67775			  -0.28148			 0.22967
	140.50			  9.78434			  -0.36630			 0.20262
	140.75			  9.70010			  -0.26431			 0.22121
	141.00			  9.63192			  -0.22067			 0.31877
	141.25			  9.58366			  -0.27885			 0.35766
	141.50			  9.61502			  -0.44077			 0.20130
	141.75			  9.74578			  -0.50158			 0.10342
	142.00			  9.80214			  -0.43552			 0.25495
	142.25			  9.83471			  -0.37629			 0.27806
	142.50			  9.82297			  -0.39872			 0.30074
	142.75			  9.90070			  -0.42623			 0.12638
	143.00			  9.83797			  -0.57606			 0.06955
	143.25			  9.96319			  -0.58131			 -0.03947
	143.50			  10.09652			  -0.44813			 -0.15576
	143.75			  10.16743			  -0.28832			 -0.20991
	144.00			  10.13857			  -0.15408			 -0.02547
	144.25			  10.24069			  -0.02686			 -0.04889
	144.50			  10.14410			  0.01309			 -0.13087
	144.75			  10.20819			  0.02010			 -0.16212
	145.00			  10.28417			  -0.10589			 -0.05876
	145.25			  10.20690			  -0.25572			 0.07411
	145.50			  10.07008			  -0.20368			 0.20085
	145.75			  10.23546			  -0.34299			 0.21834
	146.00			  10.41060			  -0.28884			 0.11801
	146.25			  10.47530			  -0.32091			 0.06465
	146.50			  10.45333			  -0.31881			 -0.00047
	146.75			  10.37038			  -0.28131			 0.06732
	147.00			  10.32629			  -0.22383			 0.04559
	147.25			  10.38591			  -0.25309			 0.06152
	147.50			  10.31818			  -0.09731			 0.08468
	147.75			  10.11683			  -0.10782			 -0.06251
	148.00			  10.13501			  -0.15636			 -0.06206
	148.25			  10.11728			  -0.15706			 -0.04743
	148.50			  10.16091			  -0.06103			 -0.06865
	148.75			  10.13963			  -0.05385			 -0.10419
	149.00			  10.24940			  0.02098			 -0.04426
	149.25			  10.17932			  -0.00128			 -0.05467
	149.50			  10.25917			  0.10614			 -0.03738
	149.75			  10.14925			  0.12559			 0.04523
	150.00			  10.01289			  0.11648			 -0.10100
	150.25			  9.96638			  0.16853			 -0.02057
	150.50			  9.87448			  0.17746			 -0.00438
	150.75			  9.85464			  0.11420			 -0.08398
	151.00			  9.86577			  0.18885			 -0.20456
	151.25			  9.87123			  0.24581			 -0.15119
	151.50			  9.85630			  0.26596			 -0.04570
	151.75			  9.90251			  0.26841			 -0.06577
	152.00			  10.05349			  0.29330			 0.05384
	152.25			  9.98706			  0.18745			 0.08553
	152.50			  10.00584			  0.04796			 0.11291
	152.75			  10.12690			  -0.12517			 0.14964
	153.00			  10.13061			  -0.00408			 0.27925
	153.25			  10.08948			  -0.07155			 0.22191
	153.50			  9.99600			  0.11999			 0.18950
	153.75			  10.01524			  0.06128			 0.18552
	154.00			  10.00645			  0.29312			 0.19984
	154.25			  9.91342			  0.15819			 0.24041
	154.50			  9.82797			  0.19113			 0.31059
	154.75			  9.82335			  0.33045			 0.43894
	155.00			  9.89782			  0.39949			 0.30823
	155.25			  9.99842			  0.41316			 0.25428
	155.50			  9.92221			  0.37899			 0.20880
	155.75			  9.89418			  0.24931			 -0.06092
	156.00			  10.01493			  0.20760			 -0.07694
	156.25			  10.01698			  0.22635			 0.07279
	156.50			  9.97047			  0.21479			 0.01951
	156.75			  9.96433			  0.09142			 0.05474
	157.00			  9.90342			  -0.00321			 0.06499
	157.25			  9.85933			  0.04972			 0.09468
	157.50			  9.74373			  0.00906			 0.02315
	157.75			  9.74699			  0.06794			 -0.14488
	158.00			  9.84009			  0.11525			 -0.14542
	158.25			  9.87782			  0.12191			 -0.09936
	158.50			  9.90797			  0.12016			 -0.11255
	158.75			  9.79646			  0.09125			 -0.10500
	159.00			  9.78964			  0.17554			 -0.06926
	159.25			  9.90327			  0.26789			 -0.04370
	159.50			  9.86395			  0.21058			 -0.15423
	159.75			  9.81517			  0.22758			 -0.03725
	160.00			  9.79896			  0.35025			 -0.01052
	160.25			  9.75487			  0.25825			 -0.04356
	160.50			  9.91638			  0.29575			 -0.17529
	160.75			  9.98607			  0.12069			 -0.17920
	161.00			  9.96509			  0.11455			 -0.19152
	161.25			  9.91645			  0.26666			 -0.16747
	161.50			  9.89994			  0.13996			 -0.13307
	161.75			  9.93206			  0.05462			 -0.11532
	162.00			  9.83941			  0.01134			 -0.19440
	162.25			  9.81691			  -0.01267			 -0.07099
	162.50			  9.78578			  0.08021			 -0.12734
	162.75			  9.87047			  -0.09748			 -0.05305
	163.00			  9.91986			  -0.11588			 -0.15647
	163.25			  9.88494			  -0.19001			 -0.10581
	163.50			  9.95092			  -0.15619			 -0.06748
	163.75			  9.93448			  -0.17932			 -0.08938
	164.00			  9.95183			  -0.09398			 -0.20242
	164.25			  10.06668			  -0.15146			 -0.09234
	164.50			  10.25038			  -0.26431			 -0.01068
	164.75			  10.17258			  -0.26554			 -0.01888
	165.00			  10.11569			  -0.28411			 0.00189
	165.25			  10.09720			  -0.18948			 0.06130