--------------TurbSim v2.00.* User Time Series Input File-----------------------
     Time series input from low-res turbsim run
--------------------------------------------------------------------------------
          3 nComp - Number of velocity components in the file
          1 nPoints - Number of time series points contained in this file (-)
          1 RefPtID - Index of the reference point (1-nPoints)
     Pointyi Pointzi ! nPoints listed in order of increasing height
       (m)     (m)
       -1.50586   94.00000
--------Time Series-------------------------------------------------------------
Elapsed Time         Point01u             Point01v           Point01w
         (s)            (m/s)                (m/s)              (m/s)
	0.00			  10.16064			  -0.40625			 0.16164
	0.25			  10.13757			  -0.37539			 0.19310
	0.50			  10.23133			  -0.23418			 0.07376
	0.75			  10.16361			  -0.28281			 0.23220
	1.00			  10.22240			  -0.30133			 0.01551
	1.25			  10.13980			  -0.15768			 -0.09112
	1.50			  10.01440			  -0.20519			 0.12645
	1.75			  9.95505			  -0.30525			 0.23770
	2.00			  9.97682			  -0.50950			 0.26473
	2.25			  9.78445			  -0.36529			 0.34665
	2.50			  9.84491			  -0.27645			 0.42466
	2.75			  9.82138			  -0.46984			 0.35581
	3.00			  9.85514			  -0.25475			 0.34219
	3.25			  9.71477			  -0.11148			 0.23406
	3.50			  9.76128			  -0.17919			 0.29289
	3.75			  9.87886			  -0.01684			 0.45661
	4.00			  9.79989			  -0.08137			 0.25825
	4.25			  9.72640			  -0.15974			 0.15333
	4.50			  9.83514			  0.06582			 -0.00190
	4.75			  9.70333			  -0.04303			 -0.09616
	5.00			  9.86845			  0.05797			 -0.10822
	5.25			  10.03868			  0.08827			 -0.04484
	5.50			  9.94501			  0.16271			 0.05754
	5.75			  9.99998			  0.06844			 -0.00297
	6.00			  9.93812			  0.31009			 0.05739
	6.25			  9.82975			  0.30018			 0.08928
	6.50			  9.83635			  0.35554			 0.01893
	6.75			  9.89552			  0.38042			 0.16075
	7.00			  9.92287			  0.06938			 0.27359
	7.25			  9.93273			  0.01364			 0.21821
	7.50			  10.01189			  -0.00300			 0.13613
	7.75			  9.90705			  -0.04827			 -0.10694
	8.00			  10.03161			  0.01963			 -0.24913
	8.25			  9.94575			  0.11763			 -0.17707
	8.50			  10.12473			  -0.05388			 -0.42143
	8.75			  10.14119			  0.23191			 -0.43569
	9.00			  10.17738			  0.16327			 -0.45106
	9.25			  10.14584			  0.24669			 -0.37540
	9.50			  10.11170			  0.27961			 -0.27335
	9.75			  10.09105			  0.27680			 -0.11839
	10.00			  10.21171			  0.31309			 -0.06635
	10.25			  10.10529			  0.34675			 0.00100
	10.50			  9.98110			  0.24388			 -0.15789
	10.75			  10.17124			  0.36246			 -0.04240
	11.00			  10.25115			  0.18777			 -0.05468
	11.25			  10.17050			  0.32449			 0.04221
	11.50			  10.02324			  0.16533			 -0.07374
	11.75			  10.06110			  0.12773			 0.02101
	12.00			  10.16929			  0.14008			 0.14172
	12.25			  10.09291			  0.06377			 0.22499
	12.50			  10.03766			  0.16495			 0.19408
	12.75			  10.03431			  0.10753			 0.09594
	13.00			  9.93914			  0.25791			 0.16546
	13.25			  9.92519			  0.40342			 0.16824
	13.50			  9.94547			  0.30224			 0.12257
	13.75			  9.85831			  0.42606			 0.16387
	14.00			  9.90817			  0.43522			 -0.02053
	14.25			  9.82752			  0.40829			 0.06048
	14.50			  9.93319			  0.48217			 0.23660
	14.75			  10.00659			  0.54015			 0.25676
	15.00			  10.03515			  0.40978			 0.06252
	15.25			  10.07766			  0.27362			 -0.09710
	15.50			  9.92287			  0.15130			 -0.21739
	15.75			  9.89840			  0.11146			 -0.14033
	16.00			  9.99198			  0.23023			 -0.19488
	16.25			  9.90724			  0.17524			 -0.22997
	16.50			  9.86073			  0.10192			 -0.21742
	16.75			  9.88556			  -0.01797			 -0.31901
	17.00			  9.89635			  0.02412			 -0.36718
	17.25			  9.93468			  -0.08549			 -0.26553
	17.50			  10.07040			  -0.32115			 -0.27882
	17.75			  10.03663			  -0.39353			 -0.23123
	18.00			  10.05282			  -0.59441			 0.00229
	18.25			  10.02212			  -0.52895			 0.03488
	18.50			  10.19738			  -0.48705			 0.02859
	18.75			  10.33673			  -0.29010			 -0.06543
	19.00			  10.02417			  -0.29366			 -0.21336
	19.25			  9.94966			  -0.22894			 -0.18978
	19.50			  9.88910			  -0.27009			 -0.32821
	19.75			  9.98668			  -0.04733			 -0.22124
	20.00			  10.02966			  0.10641			 0.07263
	20.25			  10.05273			  0.01757			 0.24909
	20.50			  9.88649			  0.21676			 0.09246
	20.75			  9.99775			  0.30467			 0.11063
	21.00			  10.06380			  0.27774			 0.10101
	21.25			  9.81831			  0.17599			 -0.13248
	21.50			  9.70342			  0.11090			 -0.24809
	21.75			  9.86389			  0.06096			 -0.26034
	22.00			  9.92082			  -0.09652			 -0.35689
	22.25			  9.99533			  0.04132			 -0.20074
	22.50			  9.90324			  0.02449			 -0.11812
	22.75			  9.85310			  -0.13991			 -0.07908
	23.00			  9.96008			  -0.14048			 -0.03852
	23.25			  10.00752			  -0.12533			 -0.41022
	23.50			  9.99273			  -0.16161			 -0.40136
	23.75			  9.82045			  -0.13636			 -0.25725
	24.00			  9.95849			  -0.02638			 -0.24662
	24.25			  9.98538			  0.14251			 -0.08999
	24.50			  9.98408			  0.29625			 -0.10749
	24.75			  10.12212			  0.22967			 -0.14396
	25.00			  10.04473			  0.21340			 -0.06464
	25.25			  9.93319			  0.24482			 -0.06348
	25.50			  9.98538			  0.38416			 -0.06546
	25.75			  9.86919			  0.38921			 -0.00159
	26.00			  9.96761			  0.21153			 -0.04551
	26.25			  9.85114			  0.18983			 -0.25218
	26.50			  9.68230			  0.37630			 -0.20374
	26.75			  9.77347			  0.24257			 -0.17878
	27.00			  9.76147			  0.18347			 0.01154
	27.25			  9.81524			  0.13278			 -0.00654
	27.50			  9.67533			  0.14906			 -0.02490
	27.75			  9.69226			  0.28204			 -0.07029
	28.00			  9.61068			  0.26333			 0.09249
	28.25			  9.74631			  0.15354			 0.17422
	28.50			  9.72575			  0.15654			 0.21576
	28.75			  9.75765			  0.20909			 0.10840
	29.00			  9.79970			  0.26988			 0.07853
	29.25			  9.85505			  0.46047			 0.15810
	29.50			  9.75607			  0.47300			 0.16698
	29.75			  9.83291			  0.49077			 0.25734
	30.00			  10.05524			  0.24968			 0.06555
	30.25			  10.16789			  0.27961			 0.06811
	30.50			  10.22501			  0.16645			 0.10944
	30.75			  10.15152			  0.12699			 0.17838
	31.00			  10.15124			  0.17505			 0.17939
	31.25			  10.31617			  0.05348			 0.13592
	31.50			  10.44045			  0.20386			 0.23620
	31.75			  10.41040			  0.16439			 0.20297
	32.00			  10.50743			  -0.05893			 0.24133
	32.25			  10.64036			  0.15280			 0.32533
	32.50			  10.63404			  0.05329			 0.22847
	32.75			  10.60752			  0.07592			 0.27136
	33.00			  10.61766			  0.15036			 0.26638
	33.25			  10.57376			  0.10753			 0.20455
	33.50			  10.71366			  0.18946			 0.30523
	33.75			  10.71338			  0.29756			 0.13204
	34.00			  10.68687			  0.27437			 -0.10184
	34.25			  10.71999			  0.21714			 -0.30154
	34.50			  10.64148			  0.02692			 -0.20566
	34.75			  10.56343			  -0.00955			 -0.00984
	35.00			  10.68297			  0.04039			 0.20199
	35.25			  10.81776			  -0.17788			 0.28690
	35.50			  10.74632			  -0.02601			 0.30667
	35.75			  10.50492			  -0.05051			 0.31497
	36.00			  10.51245			  -0.15675			 0.23794
	36.25			  10.60603			  -0.00076			 0.27502
	36.50			  10.61924			  0.02954			 0.47778
	36.75			  10.59013			  0.12773			 0.39109
	37.00			  10.62027			  0.12680			 0.37603
	37.25			  10.66092			  0.06695			 0.38532
	37.50			  10.58520			  -0.21286			 0.33351
	37.75			  10.52594			  -0.33350			 0.27878
	38.00			  10.56483			  -0.20837			 0.19677
	38.25			  10.57599			  -0.24465			 0.23192
	38.50			  10.45999			  -0.20482			 0.37628
	38.75			  10.62362			  -0.13524			 0.27548
	39.00			  10.63710			  0.09482			 0.14316
	39.25			  10.62017			  0.20722			 -0.02435
	39.50			  10.70957			  0.15654			 -0.10938
	39.75			  10.70176			  0.12455			 -0.17835
	40.00			  10.57087			  0.03272			 -0.12304
	40.25			  10.57720			  0.10398			 -0.12227
	40.50			  10.43441			  -0.12233			 -0.04316
	40.75			  10.44696			  -0.01329			 0.00027
	41.00			  10.46399			  -0.07744			 0.15813
	41.25			  10.54669			  0.05816			 0.10070
	41.50			  10.43785			  0.14382			 -0.06525
	41.75			  10.30882			  0.40866			 -0.20508
	42.00			  10.28166			  0.48853			 -0.21922
	42.25			  10.39273			  0.44700			 -0.19418
	42.50			  10.37292			  0.36228			 -0.39690
	42.75			  10.42110			  0.21433			 -0.31171
	43.00			  10.54734			  0.18553			 -0.26458
	43.25			  10.54482			  -0.00843			 -0.22594
	43.50			  10.52222			  0.00597			 -0.15844
	43.75			  10.57310			  -0.09877			 -0.19680
	44.00			  10.42985			  -0.10756			 0.01762
	44.25			  10.32073			  -0.14160			 -0.11406
	44.50			  10.45450			  -0.12738			 -0.02059
	44.75			  10.51766			  -0.07670			 0.07581
	45.00			  10.48966			  -0.10064			 0.21008
	45.25			  10.49264			  -0.05537			 0.24060
	45.50			  10.43264			  0.17767			 0.11286
	45.75			  10.40380			  -0.07838			 -0.01696
	46.00			  10.45375			  0.01327			 -0.02481
	46.25			  10.45468			  0.05142			 0.03732
	46.50			  10.36017			  -0.02208			 0.09426
	46.75			  10.34315			  0.04357			 0.12211
	47.00			  10.25394			  0.03066			 0.20223
	47.25			  10.48882			  -0.07146			 0.09569
	47.50			  10.37115			  -0.14627			 -0.09717
	47.75			  10.37989			  0.01233			 -0.12942
	48.00			  10.41161			  0.21003			 -0.15639
	48.25			  10.50259			  0.17056			 -0.07487
	48.50			  10.67952			  0.04506			 -0.09827
	48.75			  10.49924			  -0.01123			 -0.05294
	49.00			  10.54566			  -0.01984			 0.10406
	49.25			  10.64148			  -0.02545			 -0.02392
	49.50			  10.49348			  -0.12944			 -0.09995
	49.75			  10.36194			  -0.22894			 -0.01738
	50.00			  10.52241			  -0.31180			 -0.00229
	50.25			  10.46427			  -0.13206			 0.14945
	50.50			  10.48799			  -0.22034			 -0.08638
	50.75			  10.42808			  -0.13412			 -0.22985
	51.00			  10.50799			  -0.10868			 -0.24851
	51.25			  10.62687			  -0.19341			 -0.19268
	51.50			  10.61022			  -0.08231			 -0.09882
	51.75			  10.73627			  0.04525			 -0.09906
	52.00			  10.67422			  0.07237			 -0.06583
	52.25			  10.46399			  0.01645			 -0.03464
	52.50			  10.51720			  -0.00226			 0.08140
	52.75			  10.46668			  -0.08549			 0.07361
	53.00			  10.48315			  -0.00974			 0.12801
	53.25			  10.57766			  -0.08829			 0.07297
	53.50			  10.42789			  0.12399			 0.04123
	53.75			  10.47403			  0.13559			 -0.03211
	54.00			  10.48910			  0.19899			 -0.02930
	54.25			  10.18026			  0.24818			 0.26332
	54.50			  10.24752			  0.43017			 0.22685
	54.75			  10.35617			  0.38266			 0.12645
	55.00			  10.41692			  0.13709			 0.16436
	55.25			  10.48268			  0.04675			 0.22068
	55.50			  10.64110			  0.08378			 0.21213
	55.75			  10.70483			  0.18160			 0.37750
	56.00			  10.63701			  0.22518			 0.48553
	56.25			  10.64278			  0.17000			 0.60344
	56.50			  10.63087			  0.18478			 0.40343
	56.75			  10.51692			  0.12512			 0.25440
	57.00			  10.49022			  0.13465			 0.28983
	57.25			  10.29375			  0.10622			 0.35673
	57.50			  10.26929			  0.21770			 0.22820
	57.75			  10.22640			  0.15298			 0.16414
	58.00			  9.86733			  0.13709			 0.45728
	58.25			  9.87207			  0.18927			 0.45762
	58.50			  9.98184			  -0.02788			 0.35804
	58.75			  10.01877			  -0.07183			 0.17590
	59.00			  9.99115			  -0.02189			 0.30859
	59.25			  9.98166			  -0.00469			 0.28076
	59.50			  10.12287			  0.07761			 0.14942
	59.75			  10.02017			  0.23397			 -0.06763
	60.00			  9.90947			  0.09725			 -0.03678
	60.25			  10.09673			  -0.04004			 0.04343
	60.50			  10.18361			  0.05086			 0.09545
	60.75			  10.12612			  0.06788			 -0.06531
	61.00			  10.05933			  -0.02227			 -0.02276
	61.25			  10.14268			  0.01439			 -0.00581
	61.50			  10.03142			  0.11071			 0.05620
	61.75			  10.05468			  0.14999			 0.05773
	62.00			  10.12817			  0.24370			 0.09502
	62.25			  10.24371			  0.24164			 0.26775
	62.50			  10.26761			  0.34282			 0.22630
	62.75			  10.33115			  0.22424			 0.25465
	63.00			  10.00240			  0.18702			 0.32747
	63.25			  10.07710			  0.15766			 0.33147
	63.50			  10.11961			  0.30336			 0.23208
	63.75			  10.15487			  0.22312			 0.23397
	64.00			  10.11031			  0.06657			 0.16124
	64.25			  10.03208			  -0.09278			 0.08451
	64.50			  10.03124			  -0.09503			 0.21888
	64.75			  10.12361			  -0.05500			 0.09783
	65.00			  10.22054			  0.09799			 0.19918
	65.25			  10.12538			  0.18197			 0.14985
	65.50			  10.06203			  0.28297			 0.21137
	65.75			  10.13087			  0.48160			 0.17001
	66.00			  10.14696			  0.28466			 0.14463
	66.25			  10.08082			  0.04207			 0.10907
	66.50			  9.93273			  0.21227			 -0.07337
	66.75			  9.91087			  0.35928			 -0.09579
	67.00			  9.94324			  0.18889			 -0.00642
	67.25			  9.90193			  0.09799			 -0.00462
	67.50			  9.71058			  0.07424			 0.05791
	67.75			  9.61579			  0.16159			 0.08265
	68.00			  9.58993			  0.00803			 0.04245
	68.25			  9.64110			  0.13091			 0.31415
	68.50			  9.61328			  0.18066			 0.34821
	68.75			  9.44779			  0.22293			 0.28938
	69.00			  9.49691			  0.10248			 0.47213
	69.25			  9.48974			  -0.01030			 0.23681
	69.50			  9.51095			  0.05311			 0.18748
	69.75			  9.37895			  0.09070			 0.35596
	70.00			  9.41747			  0.20161			 0.26919
	70.25			  9.54919			  0.13316			 0.12175
	70.50			  9.51375			  0.10323			 0.18369
	70.75			  9.67626			  0.12044			 -0.00404
	71.00			  9.55319			  0.03178			 0.07926
	71.25			  9.71514			  0.05928			 0.00024
	71.50			  9.82277			  0.20479			 0.12538
	71.75			  9.84752			  0.15205			 0.15648
	72.00			  9.99487			  0.00822			 0.10895
	72.25			  9.93952			  -0.02825			 0.05000
	72.50			  10.00510			  -0.25737			 -0.10993
	72.75			  10.00268			  -0.06772			 -0.10880
	73.00			  9.92677			  0.03141			 0.10388
	73.25			  9.94882			  0.01794			 0.05605
	73.50			  10.04324			  0.02673			 0.07376
	73.75			  10.05924			  -0.15581			 0.05653
	74.00			  10.03812			  -0.24353			 -0.13938
	74.25			  10.01896			  -0.25344			 -0.27243
	74.50			  9.89738			  -0.11635			 -0.37518
	74.75			  9.84770			  -0.17339			 -0.30194
	75.00			  9.81738			  -0.26467			 -0.16216
	75.25			  9.83589			  -0.34173			 -0.13205
	75.50			  9.69672			  -0.31012			 0.00873
	75.75			  9.75263			  -0.19191			 -0.06070
	76.00			  9.63300			  -0.27383			 -0.12432
	76.25			  9.74044			  -0.29497			 0.07031
	76.50			  9.60984			  -0.03461			 0.12526
	76.75			  9.68165			  -0.16198			 0.11827
	77.00			  9.76435			  -0.08773			 0.18852
	77.25			  9.73738			  -0.02339			 -0.04319
	77.50			  9.83338			  0.01028			 -0.07227
	77.75			  9.79310			  -0.06173			 -0.00654
	78.00			  9.66137			  0.02898			 0.23821
	78.25			  9.61337			  0.09444			 0.21860
	78.50			  9.51793			  -0.10382			 0.18146
	78.75			  9.45002			  -0.17096			 0.11054
	79.00			  9.46770			  -0.22689			 -0.09827
	79.25			  9.48574			  -0.17134			 -0.16244
	79.50			  9.45384			  -0.07501			 0.01866
	79.75			  9.31700			  -0.23455			 0.12159
	80.00			  9.43514			  -0.49547			 0.12911
	80.25			  9.45747			  -0.24746			 0.06927
	80.50			  9.65291			  -0.06491			 0.16671
	80.75			  9.65263			  -0.07090			 0.02672
	81.00			  9.58230			  -0.00469			 -0.03837
	81.25			  9.59161			  -0.02133			 -0.21030
	81.50			  9.68621			  -0.01217			 -0.04478
	81.75			  9.64770			  -0.19228			 0.11390
	82.00			  9.67589			  -0.18929			 0.08180
	82.25			  9.72844			  -0.17040			 0.09511
	82.50			  9.58286			  -0.35875			 0.05828
	82.75			  9.61858			  -0.31049			 0.06726
	83.00			  9.44221			  -0.09559			 0.06405
	83.25			  9.35216			  -0.03779			 -0.01937
	83.50			  9.38519			  -0.06996			 -0.03852
	83.75			  9.39812			  0.09631			 0.08961
	84.00			  9.17439			  0.02561			 -0.04167
	84.25			  9.12630			  -0.11897			 -0.02407
	84.50			  9.30798			  -0.04135			 -0.07542
	84.75			  9.40240			  0.08135			 0.07853
	85.00			  9.33291			  -0.02863			 0.13467
	85.25			  9.31142			  0.00261			 0.11436
	85.50			  9.38351			  -0.07931			 0.10892
	85.75			  9.38640			  -0.17171			 0.08415
	86.00			  9.23691			  -0.46461			 0.03085
	86.25			  9.36230			  -0.25532			 0.09453
	86.50			  9.45942			  -0.14496			 0.10586
	86.75			  9.52342			  -0.22988			 0.01383
	87.00			  9.44612			  -0.25307			 0.12718
	87.25			  9.54035			  -0.22109			 0.01283
	87.50			  9.77617			  -0.12215			 -0.13522
	87.75			  9.81784			  0.10061			 0.00354
	88.00			  9.92891			  0.04993			 -0.01769
	88.25			  9.88612			  -0.01909			 -0.08024
	88.50			  9.66565			  -0.01666			 -0.04017
	88.75			  9.69979			  0.01289			 -0.16149
	89.00			  9.86156			  0.06957			 -0.15664
	89.25			  9.89393			  0.13896			 -0.10156
	89.50			  9.68389			  0.16495			 0.00363
	89.75			  9.46565			  0.15280			 -0.03397
	90.00			  9.53161			  0.14064			 -0.06176
	90.25			  9.78900			  0.29382			 -0.08626
	90.50			  9.69012			  0.21471			 0.14951
	90.75			  9.59849			  0.32767			 0.43734
	91.00			  9.50844			  0.55062			 0.45862
	91.25			  9.33691			  0.59644			 0.26760
	91.50			  9.37198			  0.42755			 0.07850
	91.75			  9.27858			  0.38528			 0.20263
	92.00			  9.44974			  0.47188			 0.06487
	92.25			  9.41523			  0.39201			 0.08430
	92.50			  9.43449			  0.44663			 0.03146
	92.75			  9.40667			  0.34769			 0.02547
	93.00			  9.33849			  0.40230			 0.11454
	93.25			  9.25932			  0.33403			 0.12813
	93.50			  9.31691			  0.32954			 0.14185
	93.75			  9.43086			  0.22088			 -0.13324
	94.00			  9.44556			  0.03029			 -0.04521
	94.25			  9.38091			  0.01046			 0.04991
	94.50			  9.24491			  -0.01516			 0.21848
	94.75			  9.25737			  0.02056			 0.24032
	95.00			  9.38146			  -0.04303			 0.17117
	95.25			  9.59161			  0.21134			 0.05241
	95.50			  9.53961			  0.19002			 0.12181
	95.75			  9.56007			  0.23042			 0.20187
	96.00			  9.48863			  0.06938			 0.22539
	96.25			  9.39486			  0.08752			 0.36659
	96.50			  9.42640			  0.29232			 0.22374
	96.75			  9.50444			  0.17206			 0.26024
	97.00			  9.40649			  0.28802			 0.29429
	97.25			  9.48788			  -0.00132			 0.22505
	97.50			  9.45970			  -0.22988			 0.27511
	97.75			  9.35784			  -0.15974			 0.44525
	98.00			  9.37058			  0.20966			 0.27282
	98.25			  9.52900			  0.26838			 0.19710
	98.50			  9.37021			  0.30355			 0.10232
	98.75			  9.27570			  0.05180			 0.08488
	99.00			  9.25728			  -0.02713			 0.21631
	99.25			  9.33142			  0.03758			 0.31546
	99.50			  9.40658			  -0.07557			 0.21411
	99.75			  9.40016			  0.01364			 0.01200
	100.00			  9.33421			  0.13260			 0.19258
	100.25			  9.20351			  0.19263			 0.16698
	100.50			  9.22518			  0.20255			 0.29445
	100.75			  9.03774			  0.04693			 0.28195
	101.00			  9.14211			  -0.07950			 0.21583
	101.25			  9.17253			  -0.13112			 0.29151
	101.50			  9.13495			  -0.23792			 0.32707
	101.75			  9.15997			  -0.08530			 0.10409
	102.00			  9.25216			  -0.12289			 0.03320
	102.25			  9.12109			  -0.15095			 0.05040
	102.50			  9.16360			  -0.02264			 0.14646
	102.75			  9.19849			  -0.16385			 -0.01537
	103.00			  8.96462			  -0.18106			 -0.08064
	103.25			  9.04593			  -0.15001			 -0.03330
	103.50			  9.05839			  -0.03742			 -0.06259
	103.75			  8.95848			  -0.19939			 -0.11812
	104.00			  8.80769			  -0.16105			 -0.10645
	104.25			  8.80946			  -0.26411			 -0.11546
	104.50			  8.80537			  -0.44983			 -0.02532
	104.75			  8.88890			  -0.38811			 0.10229
	105.00			  8.94583			  -0.32302			 0.31357
	105.25			  8.88872			  -0.30694			 0.13042
	105.50			  8.89299			  -0.06641			 0.25789
	105.75			  8.96453			  -0.04434			 0.19591
	106.00			  9.00146			  -0.03910			 0.09914
	106.25			  8.97272			  0.01177			 0.02944
	106.50			  8.93374			  0.11371			 -0.19115
	106.75			  8.77402			  0.08846			 -0.17542
	107.00			  8.89458			  0.27792			 -0.03556
	107.25			  8.94760			  0.44906			 0.03503
	107.50			  8.95411			  0.39145			 -0.00672
	107.75			  9.03597			  0.31196			 -0.04087
	108.00			  9.05542			  0.18964			 0.03775
	108.25			  9.09532			  0.28989			 0.12526
	108.50			  9.21728			  0.49750			 0.08940
	108.75			  9.54128			  0.35236			 0.13329
	109.00			  9.48844			  0.07910			 0.08971
	109.25			  9.49784			  0.05442			 0.13177
	109.50			  9.63403			  -0.08212			 0.32249
	109.75			  9.47858			  -0.07109			 0.35248
	110.00			  9.51561			  -0.18162			 0.36980
	110.25			  9.44658			  -0.26691			 0.24047
	110.50			  9.42267			  -0.18686			 0.14505
	110.75			  9.56565			  -0.32601			 0.16811
	111.00			  9.54575			  -0.21716			 0.26702
	111.25			  9.71542			  -0.24278			 0.11988
	111.50			  9.63440			  -0.21230			 0.10247
	111.75			  9.64277			  -0.01516			 0.14310
	112.00			  9.58509			  0.02486			 0.09902
	112.25			  9.37151			  0.10117			 0.02510
	112.50			  9.42705			  0.08378			 0.07413
	112.75			  9.36742			  0.30560			 0.00513
	113.00			  9.25486			  0.26988			 0.00030
	113.25			  9.28463			  0.12455			 0.02623
	113.50			  9.33049			  -0.00749			 -0.01793
	113.75			  9.41440			  0.08228			 0.12114
	114.00			  9.37514			  -0.21323			 -0.16192
	114.25			  9.39412			  -0.18293			 -0.08950
	114.50			  9.31198			  -0.16161			 0.03757
	114.75			  9.42109			  0.02430			 0.05055
	115.00			  9.39040			  0.07630			 -0.25704
	115.25			  9.40491			  0.13073			 -0.01552
	115.50			  9.35114			  0.12530			 -0.04603
	115.75			  9.52342			  0.21957			 0.03268
	116.00			  9.57896			  0.29550			 0.05259
	116.25			  9.45160			  0.16795			 0.02477
	116.50			  9.40826			  0.27848			 0.04545
	116.75			  9.32342			  0.15579			 0.06405
	117.00			  9.41188			  0.16252			 0.12001
	117.25			  9.39458			  0.17449			 0.02700
	117.50			  9.35849			  0.05722			 -0.02169
	117.75			  9.28928			  -0.08212			 -0.23352
	118.00			  9.35421			  -0.07109			 -0.07817
	118.25			  9.27793			  -0.04658			 0.01573
	118.50			  9.22025			  0.11109			 -0.12429
	118.75			  9.18974			  0.10211			 -0.26687
	119.00			  9.28239			  0.15598			 -0.26953
	119.25			  9.12183			  0.06283			 -0.22017
	119.50			  9.40165			  0.15560			 -0.31745
	119.75			  9.49533			  0.03796			 -0.40527
	120.00			  9.52435			  0.12661			 -0.32234
	120.25			  9.55282			  0.02000			 -0.21999
	120.50			  9.59337			  0.23079			 -0.07847
	120.75			  9.41644			  0.14700			 -0.20319
	121.00			  9.24174			  0.04319			 -0.10184
	121.25			  9.20044			  -0.11223			 -0.27075
	121.50			  9.25923			  -0.09503			 -0.26324
	121.75			  9.16267			  -0.08717			 -0.11516
	122.00			  9.10537			  -0.20575			 0.00662
	122.25			  9.02202			  -0.17452			 -0.08944
	122.50			  8.80360			  -0.24260			 -0.31574
	122.75			  9.05188			  -0.24334			 -0.40206
	123.00			  9.25486			  -0.29403			 -0.26229
	123.25			  9.26974			  -0.31498			 -0.36617
	123.50			  9.21439			  -0.19752			 -0.36455
	123.75			  9.39412			  -0.24783			 -0.18846
	124.00			  9.51151			  -0.23231			 -0.32833
	124.25			  9.56742			  -0.25401			 -0.46315
	124.50			  9.68342			  -0.26803			 -0.36403
	124.75			  9.69747			  -0.28056			 -0.21449
	125.00			  9.78621			  -0.24746			 -0.18309
	125.25			  9.98724			  -0.17826			 -0.13028
	125.50			  9.84603			  -0.20107			 0.01634
	125.75			  9.77626			  -0.17657			 -0.14592
	126.00			  9.75505			  -0.11653			 -0.08406
	126.25			  9.79068			  0.01084			 -0.00535
	126.50			  9.92054			  -0.04228			 -0.07307
	126.75			  9.91552			  -0.23100			 0.04117
	127.00			  9.87561			  -0.27589			 -0.05807
	127.25			  9.83840			  -0.13599			 0.00586
	127.50			  9.64249			  -0.19546			 0.27557
	127.75			  9.69114			  -0.08792			 0.41996
	128.00			  9.52630			  -0.16217			 0.33128
	128.25			  9.35979			  -0.15974			 0.16198
	128.50			  9.49700			  -0.27608			 0.00183
	128.75			  9.54026			  -0.44740			 0.04138
	129.00			  9.57998			  -0.49566			 0.10098
	129.25			  9.55198			  -0.27495			 -0.02740
	129.50			  9.35272			  -0.24185			 0.07498
	129.75			  9.11142			  -0.13094			 0.07123
	130.00			  9.12993			  -0.03125			 0.16576
	130.25			  9.08900			  -0.13000			 0.26470
	130.50			  9.01076			  -0.03574			 0.05989
	130.75			  9.18574			  -0.04303			 0.14924
	131.00			  9.29235			  -0.07202			 0.10363
	131.25			  9.41086			  -0.00076			 0.11790
	131.50			  9.28435			  -0.20107			 0.24698
	131.75			  9.27877			  -0.26691			 0.19014
	132.00			  9.20649			  -0.21174			 -0.04219
	132.25			  9.30872			  -0.19453			 -0.25884
	132.50			  9.28165			  -0.00244			 -0.22414
	132.75			  9.21681			  -0.16834			 -0.09152
	133.00			  9.28063			  -0.22277			 -0.10700
	133.25			  9.32314			  -0.37913			 -0.05055
	133.50			  9.34900			  -0.36903			 -0.00749
	133.75			  9.25077			  -0.18405			 0.02385
	134.00			  9.12230			  -0.07408			 0.01832
	134.25			  9.21170			  -0.25756			 0.20000
	134.50			  9.56844			  -0.33144			 0.09267
	134.75			  9.32891			  -0.21641			 0.06939
	135.00			  9.26565			  -0.28300			 0.08961
	135.25			  9.00286			  -0.22090			 -0.13929
	135.50			  9.20081			  -0.46218			 -0.09500
	135.75			  9.17532			  -0.42945			 0.01674
	136.00			  9.27467			  -0.45264			 0.03674
	136.25			  9.48798			  -0.26448			 0.04841
	136.50			  9.61207			  -0.37577			 0.17520
	136.75			  9.61877			  -0.13879			 0.28180
	137.00			  9.42574			  -0.01385			 -0.06882
	137.25			  9.53300			  -0.16516			 -0.16922
	137.50			  9.68844			  -0.14927			 0.08558
	137.75			  9.59877			  -0.33237			 0.12474
	138.00			  9.67812			  -0.31386			 0.10751
	138.25			  9.70454			  -0.26654			 0.03543
	138.50			  9.69114			  -0.21772			 -0.06305
	138.75			  9.69179			  -0.18854			 -0.07514
	139.00			  9.60863			  -0.19285			 -0.16522
	139.25			  9.57654			  -0.24204			 -0.01653
	139.50			  9.54398			  -0.11841			 0.04652
	139.75			  9.52844			  -0.18929			 -0.09698
	140.00			  9.54351			  -0.28487			 0.00782
	140.25			  9.64258			  -0.47677			 -0.12065
	140.50			  9.58314			  -0.44777			 -0.00232
	140.75			  9.75189			  -0.38848			 -0.11745
	141.00			  9.73189			  -0.18387			 0.01945
	141.25			  9.70500			  -0.19995			 0.19780
	141.50			  9.71951			  -0.22932			 0.10125
	141.75			  9.71347			  -0.36024			 0.20449
	142.00			  9.70165			  -0.33780			 -0.00523
	142.25			  9.69049			  -0.18218			 0.00330
	142.50			  9.45570			  -0.28056			 0.03607
	142.75			  9.47495			  -0.37109			 0.10367
	143.00			  9.56612			  -0.26598			 0.04933
	143.25			  9.60891			  -0.06267			 0.09954
	143.50			  9.45309			  -0.01815			 0.10373
	143.75			  9.43635			  0.03085			 0.04123
	144.00			  9.21281			  0.01177			 -0.01757
	144.25			  9.31849			  -0.23455			 -0.05636
	144.50			  9.21681			  -0.33986			 -0.20578
	144.75			  9.03039			  -0.40363			 -0.20991
	145.00			  9.03458			  -0.43693			 -0.20251
	145.25			  9.09560			  -0.38643			 -0.29210
	145.50			  9.12928			  -0.44946			 -0.13104
	145.75			  9.23811			  -0.46536			 0.06915
	146.00			  9.49942			  -0.23568			 -0.04157
	146.25			  9.46184			  -0.30394			 -0.19124
	146.50			  9.32174			  -0.33611			 -0.18232
	146.75			  9.32528			  -0.35818			 -0.10608
	147.00			  9.36658			  -0.32976			 -0.05850
	147.25			  9.30807			  -0.37988			 -0.07698
	147.50			  9.32230			  -0.31591			 0.17703
	147.75			  9.13244			  -0.24559			 0.14072
	148.00			  9.04835			  -0.26280			 0.10663
	148.25			  9.08053			  -0.26803			 0.03143
	148.50			  8.90872			  -0.26878			 0.16188
	148.75			  8.89197			  -0.45937			 0.28565
	149.00			  9.26165			  -0.55457			 0.30172
	149.25			  9.16146			  -0.79435			 0.11637
	149.50			  9.22091			  -0.76648			 -0.07872
	149.75			  9.02611			  -0.76611			 0.09212
	150.00			  9.04453			  -0.86112			 0.16359
	150.25			  9.02360			  -0.60264			 -0.06008
	150.50			  9.02565			  -0.15787			 -0.09005
	150.75			  9.01346			  -0.25906			 0.13839
	151.00			  8.97151			  -0.40925			 0.23492
	151.25			  8.98127			  -0.57571			 0.09667
	151.50			  8.94881			  -0.65987			 0.09783
	151.75			  8.96034			  -0.64042			 -0.14152
	152.00			  8.89188			  -0.48312			 -0.22286
	152.25			  8.93532			  -0.46536			 -0.19421
	152.50			  9.00100			  -0.55906			 -0.16452
	152.75			  8.90481			  -0.59647			 -0.23324
	153.00			  8.83709			  -0.40831			 -0.39012
	153.25			  8.94481			  -0.43450			 -0.14118
	153.50			  9.25737			  -0.71842			 0.04416
	153.75			  9.17728			  -0.61199			 0.11500
	154.00			  9.19179			  -0.58843			 0.19930
	154.25			  9.29235			  -0.70551			 0.15125
	154.50			  9.39421			  -0.61031			 -0.03070
	154.75			  9.43756			  -0.84111			 -0.09567
	155.00			  9.47616			  -0.83438			 -0.18706
	155.25			  9.44007			  -0.84167			 -0.29061
	155.50			  9.29021			  -0.92584			 -0.14775
	155.75			  9.36612			  -0.67315			 -0.02126
	156.00			  9.32705			  -0.58338			 -0.00794
	156.25			  9.18714			  -0.59983			 -0.42723
	156.50			  9.08918			  -0.65333			 -0.42005
	156.75			  9.02528			  -0.53643			 -0.46074
	157.00			  9.08667			  -0.43450			 -0.40906
	157.25			  9.18435			  -0.49509			 -0.22738
	157.50			  9.42119			  -0.44647			 -0.22823
	157.75			  9.40974			  -0.36511			 -0.13467
	158.00			  9.14323			  -0.42271			 -0.31367
	158.25			  9.15867			  -0.32489			 -0.28926
	158.50			  9.29263			  -0.30357			 -0.27130
	158.75			  9.39012			  -0.39690			 -0.39437
	159.00			  9.58407			  -0.21753			 -0.31278
	159.25			  9.64035			  -0.00020			 0.01542
	159.50			  9.51040			  -0.00749			 -0.00975
	159.75			  9.40016			  0.02318			 -0.02823
	160.00			  9.31709			  0.10005			 -0.14127
	160.25			  9.34826			  0.29008			 0.00861
	160.50			  9.06407			  0.23453			 -0.14152
	160.75			  9.06611			  0.28671			 -0.07976
	161.00			  9.14211			  0.24482			 0.22752
	161.25			  9.07923			  0.07649			 0.15333
	161.50			  9.05960			  0.11389			 -0.14640
	161.75			  9.06890			  -0.04602			 -0.21883
	162.00			  9.05802			  -0.12084			 -0.33007
	162.25			  9.04462			  -0.21753			 -0.16397
	162.50			  8.89504			  -0.30843			 -0.07212
	162.75			  8.90267			  -0.35893			 -0.20105
	163.00			  8.91374			  -0.32190			 -0.12661
	163.25			  9.03197			  -0.08362			 -0.14292
	163.50			  9.01811			  0.03365			 -0.13950
	163.75			  8.87616			  -0.04584			 -0.03889
	164.00			  8.83932			  -0.12009			 -0.02087
	164.25			  9.05207			  -0.35762			 0.13986
	164.50			  9.13895			  -0.46180			 0.02700
	164.75			  9.08993			  -0.58468			 0.04908
	165.00			  9.20016			  -0.55588			 0.07862
	165.25			  9.16453			  -0.53250			 -0.02426
	165.50			  9.22797			  -0.43917			 0.02868
	165.75			  8.99830			  -0.34023			 0.23256
	166.00			  9.03616			  -0.33798			 0.15144
	166.25			  9.04174			  -0.43262			 0.08708
	166.50			  9.05504			  -0.43019			 0.14108
	166.75			  9.17895			  -0.63257			 0.04203
	167.00			  9.10546			  -0.68288			 -0.00755
	167.25			  9.23597			  -0.76555			 -0.05935