--------------TurbSim v2.00.* User Time Series Input File-----------------------
     Time series input from low-res turbsim run
--------------------------------------------------------------------------------
          3 nComp - Number of velocity components in the file
          1 nPoints - Number of time series points contained in this file (-)
          1 RefPtID - Index of the reference point (1-nPoints)
     Pointyi Pointzi ! nPoints listed in order of increasing height
       (m)     (m)
       -4.08301   94.00000
--------Time Series-------------------------------------------------------------
Elapsed Time         Point01u             Point01v           Point01w
         (s)            (m/s)                (m/s)              (m/s)
	0.00			  9.70246			  0.07358			 0.12266
	0.25			  9.76532			  0.17176			 0.00826
	0.50			  9.70406			  0.19016			 -0.01503
	0.75			  9.80120			  0.21049			 -0.09026
	1.00			  10.01467			  0.15278			 -0.15257
	1.25			  9.95791			  0.40125			 -0.24864
	1.50			  9.80190			  0.21165			 -0.27836
	1.75			  9.83678			  0.42642			 -0.47675
	2.00			  9.86206			  0.25445			 -0.43964
	2.25			  9.81509			  0.11521			 -0.34455
	2.50			  10.05085			  0.23276			 -0.11707
	2.75			  10.13780			  0.39621			 0.21641
	3.00			  10.21166			  0.43707			 0.09974
	3.25			  10.01417			  0.55307			 0.00666
	3.50			  10.03976			  0.53719			 0.06251
	3.75			  10.08503			  0.56876			 0.14611
	4.00			  10.05385			  0.49343			 0.20969
	4.25			  9.96530			  0.65862			 0.15163
	4.50			  9.96330			  0.60013			 0.44255
	4.75			  10.22685			  0.30945			 0.52685
	5.00			  9.99818			  0.17137			 0.62754
	5.25			  9.83308			  -0.05889			 0.36788
	5.50			  9.67807			  -0.00660			 0.23388
	5.75			  9.76022			  0.01006			 0.26337
	6.00			  9.89414			  -0.04804			 0.44124
	6.25			  9.98929			  0.03988			 0.16399
	6.50			  10.07834			  0.08616			 -0.09388
	6.75			  9.97640			  0.00076			 -0.12610
	7.00			  10.00958			  -0.09549			 -0.01399
	7.25			  10.13101			  -0.38443			 0.04709
	7.50			  9.93772			  -0.47138			 0.11135
	7.75			  9.79560			  -0.49074			 -0.09597
	8.00			  9.58932			  -0.45898			 0.01767
	8.25			  9.43202			  -0.47351			 0.08551
	8.50			  9.36236			  -0.55078			 -0.04516
	8.75			  9.66498			  -0.55097			 -0.00182
	9.00			  9.64589			  -0.44930			 -0.00435
	9.25			  9.75403			  -0.21575			 0.10026
	9.50			  9.83638			  -0.41560			 0.00800
	9.75			  9.82668			  -0.55252			 -0.20425
	10.00			  9.86266			  -0.51650			 -0.12655
	10.25			  9.94362			  -0.40941			 -0.21085
	10.50			  10.02127			  -0.27249			 -0.36897
	10.75			  10.19067			  -0.18980			 -0.16609
	11.00			  9.93222			  -0.33834			 -0.24240
	11.25			  10.00008			  -0.54884			 -0.17068
	11.50			  10.07194			  -0.44427			 -0.05031
	11.75			  10.08193			  -0.25448			 0.02182
	12.00			  9.96330			  -0.23899			 0.17258
	12.25			  9.85906			  -0.19425			 -0.01440
	12.50			  10.00518			  -0.17276			 0.01472
	12.75			  9.98499			  -0.29515			 0.02947
	13.00			  9.93892			  -0.08522			 -0.06073
	13.25			  9.95421			  -0.19987			 -0.10213
	13.50			  9.96270			  -0.35944			 0.06819
	13.75			  10.07514			  -0.28237			 0.23784
	14.00			  10.17218			  -0.38946			 0.07375
	14.25			  10.17118			  -0.39101			 0.14286
	14.50			  10.25363			  -0.57886			 -0.00827
	14.75			  10.20556			  -0.66910			 -0.25566
	15.00			  10.41404			  -0.31316			 -0.27171
	15.25			  10.31550			  -0.29224			 -0.12525
	15.50			  10.06474			  -0.42490			 0.06722
	15.75			  10.12671			  -0.42354			 -0.20458
	16.00			  10.14290			  -0.44543			 -0.32066
	16.25			  10.05465			  -0.36564			 -0.20596
	16.50			  10.04975			  -0.19716			 0.02764
	16.75			  9.97310			  -0.21885			 0.27599
	17.00			  10.07464			  -0.31936			 0.17153
	17.25			  10.01857			  -0.18147			 0.12053
	17.50			  10.18667			  -0.06508			 0.01898
	17.75			  10.14390			  -0.11350			 -0.12939
	18.00			  10.25793			  -0.07477			 -0.26697
	18.25			  10.29151			  -0.07380			 -0.18745
	18.50			  10.21066			  -0.08542			 0.00203
	18.75			  10.23544			  -0.03294			 -0.04848
	19.00			  10.31180			  -0.23918			 -0.14010
	19.25			  10.30320			  -0.05017			 -0.22220
	19.50			  10.25923			  -0.05327			 -0.12338
	19.75			  10.18567			  -0.01686			 0.07218
	20.00			  9.96360			  -0.10672			 -0.05274
	20.25			  9.95981			  -0.17527			 -0.07600
	20.50			  9.89454			  -0.15087			 0.22992
	20.75			  10.06834			  -0.11756			 0.22787
	21.00			  9.94022			  -0.31413			 0.20868
	21.25			  9.65269			  -0.46092			 0.22261
	21.50			  9.72254			  -0.65225			 0.22354
	21.75			  9.70545			  -0.64761			 -0.12353
	22.00			  9.55704			  -0.46770			 -0.06868
	22.25			  9.61501			  -0.44756			 0.08096
	22.50			  9.56624			  -0.38133			 0.08420
	22.75			  9.45380			  -0.39353			 0.19009
	23.00			  9.41443			  -0.43807			 0.37919
	23.25			  9.38124			  -0.51456			 0.45808
	23.50			  9.35976			  -0.53238			 0.25837
	23.75			  9.32648			  -0.64993			 0.34477
	24.00			  9.38354			  -0.73069			 0.14808
	24.25			  9.47779			  -0.73456			 0.32404
	24.50			  9.46280			  -0.70629			 0.32513
	24.75			  9.56134			  -0.67840			 0.40943
	25.00			  9.70466			  -0.59784			 0.44867
	25.25			  9.64669			  -0.63773			 0.35541
	25.50			  9.62960			  -0.92647			 0.31124
	25.75			  9.53386			  -0.66736			 0.09324
	26.00			  9.62720			  -0.42354			 0.15518
	26.25			  9.44940			  -0.58215			 0.23429
	26.50			  9.42092			  -0.23763			 0.26095
	26.75			  9.50197			  -0.30754			 0.33819
	27.00			  9.63580			  -0.25758			 0.60540
	27.25			  9.80919			  -0.38752			 0.30004
	27.50			  9.95481			  -0.25429			 0.13513
	27.75			  9.91533			  -0.44853			 0.08163
	28.00			  9.83978			  -0.46905			 0.12415
	28.25			  9.83218			  -0.30909			 0.19483
	28.50			  9.74573			  -0.28082			 0.21783
	28.75			  9.48568			  -0.34163			 0.44505
	29.00			  9.43761			  -0.32672			 0.65244
	29.25			  9.47669			  -0.34221			 0.40879
	29.50			  9.23263			  -0.48726			 0.44927
	29.75			  9.32858			  -0.58428			 0.41637
	30.00			  9.38294			  -0.58699			 0.36892
	30.25			  9.51956			  -0.58815			 0.10489
	30.50			  9.54995			  -0.49578			 0.19087
	30.75			  9.69796			  -0.38675			 0.11620
	31.00			  9.63779			  -0.60190			 0.23149
	31.25			  9.70695			  -0.61314			 0.13722
	31.50			  9.80949			  -0.48881			 0.02727
	31.75			  9.76982			  -0.56608			 0.00345
	32.00			  10.07924			  -0.48222			 0.04228
	32.25			  10.13780			  -0.60442			 -0.06514
	32.50			  10.03216			  -0.48067			 0.10982
	32.75			  9.98569			  -0.08290			 0.08633
	33.00			  9.96790			  -0.24906			 -0.10844
	33.25			  10.09133			  -0.24325			 -0.17527
	33.50			  9.93642			  -0.25506			 0.02129
	33.75			  9.51287			  -0.51398			 0.04724
	34.00			  9.74283			  -0.39992			 0.11418
	34.25			  9.79700			  -0.36370			 0.16164
	34.50			  9.67537			  -0.39082			 0.04048
	34.75			  9.62640			  -0.48184			 -0.08750
	35.00			  9.77042			  -0.49500			 -0.01955
	35.25			  9.64809			  -0.24306			 0.16257
	35.50			  9.59812			  -0.35906			 0.08379
	35.75			  9.61691			  -0.48648			 -0.04714
	36.00			  9.78611			  -0.54381			 -0.01974
	36.25			  10.16379			  -0.49268			 -0.04415
	36.50			  10.16359			  -0.41483			 -0.11367
	36.75			  9.91213			  -0.60771			 0.08573
	37.00			  9.70016			  -0.75083			 0.04609
	37.25			  9.79210			  -0.68576			 -0.20671
	37.50			  9.87855			  -0.72565			 -0.32502
	37.75			  9.85647			  -0.59919			 -0.21220
	38.00			  10.08823			  -0.62572			 -0.07768
	38.25			  10.06664			  -0.75257			 -0.19290
	38.50			  10.09723			  -0.82384			 -0.21313
	38.75			  10.07634			  -0.63831			 -0.15851
	39.00			  10.14130			  -0.43342			 -0.15911
	39.25			  10.19297			  -0.32865			 -0.00346
	39.50			  10.23784			  -0.26707			 0.01513
	39.75			  10.36307			  -0.41735			 -0.22586
	40.00			  10.35667			  -0.24790			 0.06229
	40.25			  10.53207			  -0.34647			 0.12546
	40.50			  10.36667			  -0.04785			 0.18908
	40.75			  10.21955			  0.04976			 0.14065
	41.00			  10.20916			  -0.08987			 0.00065
	41.25			  10.12091			  -0.22388			 0.13449
	41.50			  10.01657			  -0.45957			 -0.16482
	41.75			  10.10952			  -0.44485			 -0.23856
	42.00			  10.05755			  -0.42471			 0.07786
	42.25			  10.06864			  -0.49810			 -0.11658
	42.50			  10.11781			  -0.53490			 -0.00028
	42.75			  9.98339			  -0.54032			 -0.07828
	43.00			  10.17258			  -0.42103			 -0.00947
	43.25			  10.15039			  -0.52212			 -0.00783
	43.50			  10.29851			  -0.54129			 0.06486
	43.75			  10.32939			  -0.72062			 0.02872
	44.00			  10.41584			  -0.96598			 -0.00047
	44.25			  10.22165			  -0.81086			 0.03739
	44.50			  10.14770			  -0.56201			 0.24161
	44.75			  10.08153			  -0.51650			 0.29395
	45.00			  10.11192			  -0.47467			 0.01121
	45.25			  10.04735			  -0.58738			 0.05915
	45.50			  9.91793			  -0.46150			 -0.03299
	45.75			  10.25623			  -0.42509			 0.03619
	46.00			  10.00468			  -0.52986			 0.00864
	46.25			  9.95361			  -0.37339			 -0.03893
	46.50			  10.14020			  -0.24015			 -0.05397
	46.75			  10.26673			  -0.29864			 -0.05726
	47.00			  10.28971			  -0.26242			 -0.17875
	47.25			  10.19737			  -0.44078			 -0.00992
	47.50			  10.35997			  -0.68401			 -0.10792
	47.75			  10.40654			  -0.55194			 -0.13559
	48.00			  10.32149			  -0.44756			 -0.08959
	48.25			  10.24414			  -0.27114			 -0.13211
	48.50			  10.29251			  -0.23879			 -0.19495
	48.75			  10.09493			  -0.18089			 -0.13749
	49.00			  10.15179			  -0.29496			 -0.25633
	49.25			  9.89884			  -0.48823			 -0.28026
	49.50			  9.99059			  -0.49191			 -0.13021
	49.75			  9.96150			  -0.59028			 -0.02045
	50.00			  9.75772			  -0.46053			 -0.21780
	50.25			  9.90944			  -0.36506			 -0.07716
	50.50			  9.82558			  -0.23202			 -0.21477
	50.75			  9.71355			  -0.24247			 -0.18715
	51.00			  9.65908			  -0.36506			 -0.04244
	51.25			  9.71975			  -0.01977			 0.11874
	51.50			  9.58692			  0.11134			 0.08420
	51.75			  9.61301			  -0.20084			 0.01558
	52.00			  9.57483			  -0.44097			 0.01375
	52.25			  9.39694			  -0.34453			 -0.12401
	52.50			  9.48678			  0.02458			 -0.40403
	52.75			  9.59832			  0.05944			 -0.17774
	53.00			  9.48009			  -0.04184			 -0.06062
	53.25			  9.49848			  -0.01202			 -0.08392
	53.50			  9.60321			  -0.02461			 -0.06118
	53.75			  9.60032			  -0.09065			 0.02473
	54.00			  9.76362			  -0.38539			 -0.20051
	54.25			  9.86856			  -0.31839			 -0.00435
	54.50			  9.86246			  -0.16230			 -0.01212
	54.75			  9.88775			  -0.02383			 0.04284
	55.00			  9.69826			  0.05770			 0.04258
	55.25			  9.98209			  0.09042			 -0.11994
	55.50			  10.17318			  0.14600			 0.02073
	55.75			  10.06404			  0.23935			 -0.05453
	56.00			  10.27502			  0.07028			 -0.08522
	56.25			  10.13450			  0.00541			 -0.30147
	56.50			  10.10822			  -0.04068			 -0.08713
	56.75			  10.09633			  -0.21711			 -0.01720
	57.00			  10.20206			  -0.26416			 -0.13099
	57.25			  10.27902			  -0.01454			 -0.39955
	57.50			  10.11891			  0.09178			 -0.20932
	57.75			  10.27222			  -0.08968			 -0.24815
	58.00			  10.43842			  0.14232			 -0.24830
	58.25			  10.40724			  0.11347			 -0.04255
	58.50			  10.43982			  0.11618			 0.13423
	58.75			  10.57794			  -0.21052			 0.05684
	59.00			  10.53897			  -0.25158			 0.07573
	59.25			  10.58084			  -0.12066			 0.01562
	59.50			  10.24304			  -0.27172			 0.00057
	59.75			  10.15609			  -0.40553			 -0.04572
	60.00			  10.09543			  -0.32226			 -0.25469
	60.25			  10.24254			  -0.31665			 -0.36803
	60.50			  10.18907			  -0.00757			 -0.41571
	60.75			  10.13780			  -0.01822			 -0.24184
	61.00			  10.04486			  -0.20045			 -0.43729
	61.25			  10.13770			  -0.38539			 -0.31793
	61.50			  10.04815			  -0.40592			 -0.24950
	61.75			  9.99858			  -0.26746			 -0.22467
	62.00			  9.95191			  -0.28334			 -0.11587
	62.25			  9.81469			  -0.39876			 -0.04285
	62.50			  9.59142			  -0.39527			 0.16858
	62.75			  9.54165			  -0.45298			 0.22470
	63.00			  9.71995			  -0.47215			 0.06748
	63.25			  9.81229			  -0.19212			 -0.21877
	63.50			  9.71275			  -0.26842			 -0.27753
	63.75			  9.65698			  -0.29476			 -0.00051
	64.00			  9.68926			  -0.44678			 0.10392
	64.25			  9.58962			  -0.50817			 0.19740
	64.50			  9.67078			  -0.38288			 0.05557
	64.75			  9.93992			  -0.65942			 0.17138
	65.00			  10.08603			  -0.78239			 0.28981
	65.25			  10.10472			  -0.60442			 0.26181
	65.50			  10.00858			  -0.40457			 0.31296
	65.75			  10.06754			  -0.32633			 0.15977
	66.00			  9.91433			  -0.23299			 0.01924
	66.25			  9.85946			  -0.25545			 -0.05741
	66.50			  9.92992			  -0.36332			 -0.18603
	66.75			  9.92982			  -0.50934			 -0.17259
	67.00			  10.13710			  -0.67704			 -0.19290
	67.25			  10.11262			  -0.45898			 -0.23109
	67.50			  10.14330			  -0.14545			 -0.17983
	67.75			  10.08103			  -0.21013			 -0.16224
	68.00			  10.06694			  -0.42180			 -0.11867
	68.25			  9.82488			  -0.23144			 -0.06573
	68.50			  9.82089			  -0.35228			 -0.04046
	68.75			  9.84227			  -0.45376			 0.19718
	69.00			  9.66818			  -0.38055			 0.20020
	69.25			  9.77741			  -0.46789			 0.18822
	69.50			  9.81699			  -0.42645			 0.25830
	69.75			  9.90744			  -0.33950			 0.33394
	70.00			  10.13320			  -0.47273			 0.23112
	70.25			  10.12311			  -0.17218			 0.01924
	70.50			  9.95521			  -0.06702			 0.08585
	70.75			  10.01128			  -0.10962			 0.02275
	71.00			  10.34158			  0.00076			 -0.06293
	71.25			  10.47930			  -0.16133			 0.03306
	71.50			  10.36787			  0.01374			 -0.07731
	71.75			  10.32699			  0.20216			 0.18281
	72.00			  10.15439			  0.26084			 0.25572
	72.25			  10.05365			  0.46883			 0.20827
	72.50			  10.01647			  0.11831			 0.16559
	72.75			  9.93072			  0.07106			 0.05497
	73.00			  9.88295			  -0.08580			 -0.17132
	73.25			  9.80799			  -0.07322			 -0.13865
	73.50			  9.72664			  -0.07515			 0.00457
	73.75			  9.57643			  0.08868			 -0.07753
	74.00			  9.71145			  0.11618			 -0.16792
	74.25			  9.95771			  0.34140			 -0.32502
	74.50			  10.08153			  0.37297			 -0.35960
	74.75			  9.96430			  0.41867			 -0.23893
	75.00			  9.97799			  0.44501			 0.00300
	75.25			  10.12311			  0.34625			 -0.02119
	75.50			  9.97320			  0.44540			 0.03029
	75.75			  10.12981			  0.06796			 -0.09131
	76.00			  10.07884			  0.13651			 -0.13656
	76.25			  10.12631			  0.39389			 -0.22004
	76.50			  10.03766			  0.09507			 -0.22594
	76.75			  9.99868			  0.00851			 -0.46858
	77.00			  9.80470			  0.14717			 -0.46910
	77.25			  9.92373			  0.10321			 -0.33305
	77.50			  9.96600			  0.18164			 -0.32812
	77.75			  9.91183			  -0.16927			 -0.22534
	78.00			  9.84777			  -0.44543			 -0.00391
	78.25			  9.92643			  -0.45879			 0.19528
	78.50			  9.91243			  -0.19755			 0.41566
	78.75			  9.95281			  0.00212			 0.59036
	79.00			  9.69836			  0.28641			 0.39170
	79.25			  9.64719			  0.11909			 0.28716
	79.50			  9.57823			  0.02671			 0.26864
	79.75			  9.56834			  0.19558			 0.36455
	80.00			  9.67357			  0.28912			 0.19427
	80.25			  9.61591			  0.21282			 0.04291
	80.50			  9.43691			  0.26142			 -0.00529
	80.75			  9.38844			  0.36600			 0.10063
	81.00			  9.46380			  0.44308			 0.01248
	81.25			  9.36196			  0.63944			 -0.03082
	81.50			  9.29779			  0.59820			 0.00427
	81.75			  9.39993			  0.51531			 0.05519
	82.00			  9.49108			  0.77462			 0.11153
	82.25			  9.75662			  0.81006			 0.03141
	82.50			  9.64429			  0.53409			 -0.05685
	82.75			  9.77172			  0.40202			 0.01364
	83.00			  9.73054			  0.30306			 0.02294
	83.25			  9.66508			  0.48297			 0.13845
	83.50			  9.70795			  0.51686			 0.14387
	83.75			  9.63679			  0.34663			 0.00240
	84.00			  9.73084			  0.26297			 0.00016
	84.25			  9.91093			  0.24264			 0.13871
	84.50			  9.97600			  0.12567			 0.25867
	84.75			  10.03576			  0.07861			 0.28727
	85.00			  9.97180			  -0.00873			 0.40211
	85.25			  9.81519			  -0.03797			 0.37923
	85.50			  9.68367			  -0.11214			 0.08805
	85.75			  9.81169			  0.21475			 0.00950
	86.00			  9.85896			  0.48800			 0.05833
	86.25			  9.76902			  0.45489			 0.28843
	86.50			  9.69786			  0.38440			 0.32655
	86.75			  9.77501			  0.13477			 0.31415
	87.00			  10.02037			  0.07532			 0.10672
	87.25			  10.23864			  0.10592			 0.00035
	87.50			  10.04416			  0.32630			 0.10899
	87.75			  10.10182			  0.32185			 0.28122
	88.00			  10.06734			  0.28408			 0.06038
	88.25			  9.84307			  0.16595			 0.02839
	88.50			  9.82458			  0.06815			 -0.02265
	88.75			  9.57973			  0.29105			 -0.05453
	89.00			  9.60681			  0.31391			 -0.07380
	89.25			  9.65059			  0.34315			 -0.21888
	89.50			  9.46520			  0.15898			 -0.07555
	89.75			  9.61591			  0.44772			 -0.07271
	90.00			  9.78381			  0.45140			 -0.21563
	90.25			  9.60042			  0.18261			 -0.28847
	90.50			  9.48708			  0.27769			 -0.18420
	90.75			  9.59192			  0.24128			 -0.01096
	91.00			  9.69486			  0.28834			 -0.20092
	91.25			  9.47299			  0.31545			 -0.14104
	91.50			  9.39764			  0.32223			 -0.02388
	91.75			  9.37605			  0.48897			 -0.08171
	92.00			  9.57953			  0.51047			 0.00621
	92.25			  9.82239			  0.40628			 0.16070
	92.50			  9.86226			  0.31720			 0.15809
	92.75			  9.74413			  0.25987			 0.04396
	93.00			  9.60082			  0.43610			 -0.07249
	93.25			  9.56514			  0.20391			 0.01558
	93.50			  9.56524			  0.14058			 -0.24472
	93.75			  9.62820			  0.25310			 -0.24509
	94.00			  9.59672			  0.07764			 -0.23990
	94.25			  9.44361			  -0.04707			 -0.05886
	94.50			  9.40303			  -0.19793			 0.31255
	94.75			  9.53346			  -0.37184			 0.38796
	95.00			  9.47709			  -0.57208			 0.39849
	95.25			  9.48348			  -0.64799			 0.11825
	95.50			  9.44271			  -0.73262			 0.19080
	95.75			  9.66308			  -0.48397			 0.16910
	96.00			  9.69006			  -0.47409			 0.17202
	96.25			  9.74493			  -0.52618			 0.05101
	96.50			  9.95441			  -0.47002			 0.02495
	96.75			  10.26992			  -0.39101			 0.27211
	97.00			  10.30840			  -0.49036			 0.28947
	97.25			  10.22855			  -0.65187			 0.24138
	97.50			  10.35707			  -0.52889			 0.16052
	97.75			  10.58794			  -0.41541			 0.12094
	98.00			  10.74594			  -0.60462			 0.08297
	98.25			  10.38945			  -0.59222			 0.06490
	98.50			  10.47460			  -0.32788			 0.10870
	98.75			  10.65820			  -0.46247			 0.18135
	99.00			  10.45731			  -0.58835			 0.09470
	99.25			  10.19077			  -0.62844			 0.13401
	99.50			  10.16998			  -0.79653			 0.12729
	99.75			  10.13870			  -0.88193			 0.14790
	100.00			  10.12331			  -0.89975			 0.16627
	100.25			  10.02057			  -0.46847			 0.10287
	100.50			  10.14560			  -0.12531			 -0.00010
	100.75			  10.13680			  -0.24383			 0.00147
	101.00			  10.14120			  -0.18999			 0.00524
	101.25			  9.94601			  -0.34744			 -0.11263
	101.50			  10.14240			  -0.22679			 0.05213
	101.75			  10.12441			  -0.32497			 0.20285
	102.00			  10.07644			  -0.15765			 0.20121
	102.25			  10.04276			  -0.01783			 0.19401
	102.50			  9.89664			  0.09527			 0.16791
	102.75			  9.66748			  -0.00001			 0.02230
	103.00			  9.76842			  -0.27869			 0.13024
	103.25			  9.80400			  -0.18612			 -0.01410
	103.50			  9.78061			  -0.26920			 0.04302
	103.75			  9.78021			  -0.19851			 -0.06782
	104.00			  9.67877			  -0.21110			 0.08861
	104.25			  9.80390			  -0.14681			 -0.03191
	104.50			  9.93852			  -0.33020			 -0.13891
	104.75			  9.96200			  -0.60403			 -0.09590
	105.00			  9.87106			  -0.49133			 -0.14585
	105.25			  9.92353			  -0.34802			 -0.11927
	105.50			  9.62410			  -0.59629			 -0.00835
	105.75			  9.60321			  -0.22795			 0.02253
	106.00			  9.69856			  -0.36855			 0.24934
	106.25			  9.73274			  -0.38346			 0.30497
	106.50			  9.76482			  -0.25138			 0.03440
	106.75			  9.87715			  -0.18418			 -0.10632
	107.00			  9.84747			  -0.23802			 -0.04748
	107.25			  9.65269			  -0.33737			 -0.17826
	107.50			  9.57203			  -0.44427			 -0.10740
	107.75			  9.70336			  -0.46073			 -0.13656
	108.00			  9.82838			  -0.41657			 0.06416
	108.25			  9.85137			  -0.35247			 -0.21205
	108.50			  9.84347			  -0.05482			 -0.20178
	108.75			  9.64369			  -0.14158			 0.09776
	109.00			  9.51047			  -0.19367			 0.39737
	109.25			  9.35736			  -0.48106			 0.32826
	109.50			  9.35596			  -0.69583			 0.51091
	109.75			  9.68307			  -0.67685			 0.38281
	110.00			  9.56494			  -0.44194			 0.28634
	110.25			  9.62040			  -0.54884			 0.26524
	110.50			  9.60212			  -0.33388			 0.26061
	110.75			  9.74603			  -0.22388			 0.34473
	111.00			  9.61541			  -0.39876			 0.41608
	111.25			  9.64149			  -0.29418			 0.26513
	111.50			  9.61311			  -0.20258			 0.26517
	111.75			  9.41752			  -0.11931			 0.26737
	112.00			  9.48089			  -0.08677			 0.15413
	112.25			  9.88005			  0.12257			 0.04250
	112.50			  9.82598			  0.09585			 -0.10101
	112.75			  9.79540			  0.06138			 -0.07383
	113.00			  9.87835			  0.09004			 -0.03041
	113.25			  9.99389			  0.21940			 0.11318
	113.50			  9.90424			  0.12974			 0.08028
	113.75			  9.86506			  0.15104			 -0.13850
	114.00			  9.88415			  0.06331			 -0.01753
	114.25			  9.79570			  0.04840			 0.10668
	114.50			  9.60421			  0.04201			 -0.09467
	114.75			  9.83948			  0.00928			 -0.13331
	115.00			  9.77152			  -0.01667			 -0.20529
	115.25			  9.63929			  -0.28915			 -0.24072
	115.50			  9.56953			  -0.18573			 -0.43162
	115.75			  9.53775			  -0.17663			 0.00509
	116.00			  9.55105			  -0.48997			 0.30638
	116.25			  9.56314			  -0.42219			 0.11325
	116.50			  9.65109			  -0.25506			 -0.01167
	116.75			  9.79050			  -0.12957			 0.01719
	117.00			  9.63869			  -0.19580			 -0.11580
	117.25			  9.68227			  -0.19638			 -0.06383
	117.50			  9.71675			  -0.29980			 -0.05812
	117.75			  9.58852			  -0.03371			 -0.23180
	118.00			  9.73164			  -0.04514			 -0.29512
	118.25			  10.04436			  -0.10091			 -0.13462
	118.50			  10.04995			  0.02284			 0.09966
	118.75			  9.98709			  -0.03778			 0.29309
	119.00			  10.09143			  -0.16191			 0.24859
	119.25			  10.19947			  -0.00660			 0.10313
	119.50			  10.19976			  -0.06412			 0.07181
	119.75			  10.23424			  0.23935			 0.22884
	120.00			  10.14400			  0.37743			 0.21014
	120.25			  10.10772			  0.00289			 0.27155
	120.50			  10.02906			  -0.21168			 0.09776
	120.75			  10.14600			  -0.39605			 0.11355
	121.00			  10.17888			  -0.51631			 0.17706
	121.25			  10.03256			  -0.59687			 0.21913
	121.50			  10.12941			  -0.64896			 0.13606
	121.75			  10.33589			  -0.57266			 0.11818
	122.00			  10.29461			  -0.26126			 0.13487
	122.25			  10.12591			  -0.22679			 -0.15989
	122.50			  10.07634			  -0.18922			 0.02667
	122.75			  10.19757			  -0.21711			 -0.07537
	123.00			  10.05195			  -0.29147			 -0.04931
	123.25			  10.16219			  0.07687			 -0.05498
	123.50			  10.15299			  -0.10866			 0.24792
	123.75			  10.09503			  0.07822			 0.05945
	124.00			  10.08353			  -0.06257			 -0.15877
	124.25			  10.08014			  0.07280			 -0.32611
	124.50			  9.95751			  0.02613			 -0.35217
	124.75			  10.05605			  0.02981			 -0.36871
	125.00			  10.24194			  0.03678			 -0.17949
	125.25			  10.43073			  -0.02422			 -0.03314
	125.50			  10.38626			  0.10417			 -0.01302
	125.75			  10.18957			  -0.04843			 -0.22814
	126.00			  10.07174			  -0.04397			 -0.28650
	126.25			  10.15429			  0.11134			 -0.22388
	126.50			  10.09343			  0.14097			 -0.33458
	126.75			  10.04236			  0.04743			 -0.53895
	127.00			  9.86986			  -0.11350			 -0.45734
	127.25			  9.89095			  0.10282			 -0.34795
	127.50			  10.14080			  -0.03197			 -0.27455
	127.75			  10.33009			  -0.01512			 -0.27085
	128.00			  10.38456			  0.13864			 -0.47500
	128.25			  10.46911			  0.07997			 -0.35250
	128.50			  10.37906			  0.03175			 -0.27074
	128.75			  10.21066			  -0.24673			 -0.20059
	129.00			  10.34658			  -0.38636			 -0.23886
	129.25			  10.34318			  -0.22931			 -0.29381
	129.50			  10.25223			  -0.25158			 -0.18382
	129.75			  10.22905			  -0.27230			 -0.02806
	130.00			  10.34018			  -0.10672			 -0.06506
	130.25			  10.30200			  0.05731			 -0.05845
	130.50			  10.33918			  0.07028			 -0.00742
	130.75			  10.26842			  -0.19057			 0.12583
	131.00			  10.15729			  -0.24093			 0.12568
	131.25			  10.05325			  -0.20103			 -0.03273
	131.50			  10.04266			  -0.27869			 0.06890
	131.75			  10.07644			  -0.37494			 -0.14668
	132.00			  10.09822			  -0.29031			 -0.17613
	132.25			  9.98849			  0.01780			 -0.24632
	132.50			  9.90614			  0.03310			 -0.06013
	132.75			  9.98419			  -0.05618			 -0.02153
	133.00			  9.91063			  0.02787			 -0.15541
	133.25			  9.87486			  -0.08193			 0.02197
	133.50			  9.95401			  0.05498			 -0.02788
	133.75			  10.10432			  0.05731			 0.08096
	134.00			  10.16598			  -0.08096			 0.04478
	134.25			  10.05905			  0.01083			 -0.11184
	134.50			  10.26673			  0.20952			 0.02044
	134.75			  10.07554			  0.20468			 0.09328
	135.00			  10.16359			  0.14291			 -0.29773
	135.25			  9.95911			  -0.00757			 -0.21817
	135.50			  10.16708			  -0.11795			 -0.37767
	135.75			  10.06155			  0.07106			 -0.43737
	136.00			  10.13740			  -0.10014			 -0.08283
	136.25			  10.00488			  -0.32652			 -0.19667
	136.50			  9.89554			  -0.38346			 -0.28903
	136.75			  9.94352			  -0.41328			 -0.03706
	137.00			  9.90934			  -0.39062			 -0.08164
	137.25			  9.82419			  -0.25061			 -0.15623
	137.50			  9.80769			  -0.29457			 -0.10120
	137.75			  10.03116			  -0.09220			 0.03391
	138.00			  9.88745			  -0.06934			 0.04597
	138.25			  9.93382			  0.07396			 -0.08795
	138.50			  9.79100			  -0.09045			 0.02615
	138.75			  9.89015			  -0.19987			 0.15749
	139.00			  9.97750			  -0.06528			 0.17295
	139.25			  10.10662			  0.03252			 0.13800
	139.50			  9.93152			  -0.18806			 0.13315
	139.75			  9.82968			  -0.23918			 -0.04303
	140.00			  9.90784			  -0.23628			 -0.08530
	140.25			  9.94212			  -0.36467			 -0.16396
	140.50			  10.00608			  -0.16249			 0.04997
	140.75			  10.15929			  -0.15165			 -0.01869
	141.00			  10.23634			  -0.25003			 0.05146
	141.25			  10.16668			  -0.24093			 -0.00954
	141.50			  10.03386			  -0.12899			 -0.03325
	141.75			  10.18008			  -0.30386			 0.05038
	142.00			  9.95051			  -0.08639			 0.17754
	142.25			  10.04056			  0.01664			 0.09679
	142.50			  10.26872			  0.13148			 0.21906
	142.75			  10.14680			  0.13710			 0.16978
	143.00			  10.22075			  0.25658			 0.19315
	143.25			  10.22965			  0.10108			 0.12247
	143.50			  10.14000			  0.19326			 0.19236
	143.75			  9.98089			  0.13109			 0.11467
	144.00			  9.96360			  0.14852			 -0.01171
	144.25			  9.87605			  0.08035			 -0.12506
	144.50			  10.17898			  0.03601			 -0.15676
	144.75			  10.19507			  0.22734			 0.11333
	145.00			  10.20956			  0.22637			 0.20461
	145.25			  10.11651			  0.16208			 0.29649
	145.50			  9.89175			  0.50737			 0.33457
	145.75			  9.88445			  0.21262			 0.18564
	146.00			  9.97210			  0.36619			 0.09660
	146.25			  10.18977			  0.28563			 0.07532
	146.50			  9.96580			  0.31487			 -0.06592
	146.75			  10.10442			  0.48607			 0.22563
	147.00			  10.06165			  0.45353			 0.00580
	147.25			  9.98389			  0.26510			 -0.00995
	147.50			  9.85876			  0.41093			 0.04877
	147.75			  9.89784			  0.53100			 0.04347
	148.00			  9.94851			  0.47019			 -0.10490
	148.25			  9.95501			  0.34934			 -0.25879
	148.50			  9.89894			  0.40163			 -0.08388
	148.75			  9.91243			  0.19771			 -0.08085
	149.00			  10.02777			  0.06951			 -0.33260
	149.25			  9.81919			  0.07261			 -0.39025
	149.50			  9.65548			  0.14058			 0.06106
	149.75			  9.67617			  0.23838			 -0.00581
	150.00			  9.56324			  0.40977			 -0.01272
	150.25			  9.71355			  0.53932			 -0.00533
	150.50			  9.78551			  0.44501			 0.03231
	150.75			  9.80749			  0.68554			 0.29884
	151.00			  9.92433			  0.67353			 0.48283
	151.25			  10.04166			  0.62473			 0.50277
	151.50			  10.21146			  0.96963			 0.28081
	151.75			  9.99678			  0.98958			 0.04907
	152.00			  9.96720			  0.99113			 0.10642
	152.25			  9.99798			  1.01417			 0.08562
	152.50			  10.03596			  0.97583			 0.01846
	152.75			  10.38795			  0.93167			 -0.06241
	153.00			  10.53177			  0.81742			 -0.25655
	153.25			  10.54206			  0.73976			 -0.17867
	153.50			  10.37266			  0.66404			 -0.34758
	153.75			  10.29221			  0.75060			 -0.03657
	154.00			  10.47540			  0.55501			 -0.08933
	154.25			  10.68078			  0.47367			 -0.01656
	154.50			  10.65820			  0.51860			 -0.18815
	154.75			  10.50489			  0.57786			 -0.17990
	155.00			  10.37256			  0.49498			 -0.24573
	155.25			  10.40944			  0.35845			 0.06233
	155.50			  10.40614			  0.46186			 0.16175
	155.75			  10.52358			  0.59064			 0.18012
	156.00			  10.33708			  0.58522			 0.19539
	156.25			  10.45522			  0.50098			 -0.03008
	156.50			  10.40994			  0.66075			 -0.10886
	156.75			  10.33109			  0.70103			 -0.13223
	157.00			  10.28482			  0.36871			 -0.14507
	157.25			  10.24134			  0.22424			 -0.17617
	157.50			  10.18527			  0.29125			 -0.24651
	157.75			  10.06045			  0.35574			 0.06546
	158.00			  10.12881			  0.59045			 0.00151
	158.25			  10.19947			  0.52712			 0.03746
	158.50			  10.01198			  0.61253			 0.10310
	158.75			  9.94112			  0.64584			 0.12344
	159.00			  9.96220			  0.85111			 0.05680
	159.25			  10.02587			  0.92219			 0.18859
	159.50			  10.28112			  0.94097			 0.00199
	159.75			  10.31080			  1.03683			 -0.03068
	160.00			  10.40984			  0.97021			 -0.16056
	160.25			  10.62721			  0.85808			 0.00259
	160.50			  10.71626			  0.55637			 0.07200
	160.75			  10.50369			  0.56818			 -0.00111
	161.00			  10.37416			  0.71652			 0.02268
	161.25			  10.40634			  0.69193			 0.09750
	161.50			  10.20146			  0.70703			 0.09063
	161.75			  10.01837			  0.67643			 0.28835
	162.00			  9.96550			  0.64545			 0.28779
	162.25			  9.84827			  0.51512			 0.45774
	162.50			  9.86716			  0.35903			 0.42660
	162.75			  9.64719			  0.34857			 0.40245
	163.00			  9.91683			  0.45179			 -0.02213
	163.25			  9.97060			  0.45005			 -0.22034
	163.50			  9.99568			  0.55307			 -0.27873
	163.75			  10.23404			  0.43184			 -0.52697
	164.00			  10.30191			  0.46515			 -0.43225
	164.25			  10.38825			  0.35535			 -0.20440
	164.50			  10.10132			  0.50292			 0.03623
	164.75			  10.11641			  0.08035			 -0.29325
	165.00			  10.24674			  0.22017			 -0.36019
	165.25			  10.38696			  0.08926			 -0.46533
	165.50			  10.35128			  0.34528			 -0.42370
	165.75			  10.33858			  0.18435			 -0.34780
	166.00			  10.20166			  0.20972			 -0.26645
	166.25			  10.13390			  0.26510			 -0.20365