--------------TurbSim v2.00.* User Time Series Input File-----------------------
     Time series input from low-res turbsim run
--------------------------------------------------------------------------------
          3 nComp - Number of velocity components in the file
          1 nPoints - Number of time series points contained in this file (-)
          1 RefPtID - Index of the reference point (1-nPoints)
     Pointyi Pointzi ! nPoints listed in order of increasing height
       (m)     (m)
       -0.74721   94.00000
--------Time Series-------------------------------------------------------------
Elapsed Time         Point01u             Point01v           Point01w
         (s)            (m/s)                (m/s)              (m/s)
	0.00			  10.23995			  1.04354			 -0.41196
	0.25			  10.22589			  0.62041			 -0.47576
	0.50			  10.47449			  0.59177			 -0.37651
	0.75			  10.21367			  0.85042			 -0.60170
	1.00			  10.33368			  0.67837			 -0.36225
	1.25			  10.39720			  0.65157			 -0.38006
	1.50			  10.54911			  0.53038			 -0.69585
	1.75			  10.68543			  0.66852			 -0.80999
	2.00			  10.75612			  0.88158			 -0.74442
	2.25			  10.85744			  0.66966			 -0.42221
	2.50			  10.81148			  0.58582			 -0.35938
	2.75			  10.59942			  0.44011			 -0.00230
	3.00			  10.60856			  0.27471			 0.11127
	3.25			  10.64200			  -0.24900			 -0.13517
	3.50			  10.54715			  -0.25931			 -0.13202
	3.75			  10.68177			  -0.34591			 -0.29375
	4.00			  10.97000			  0.11915			 -0.13448
	4.25			  10.91969			  0.11847			 -0.15384
	4.50			  10.71620			  0.17780			 -0.16850
	4.75			  10.50063			  0.30151			 -0.18053
	5.00			  10.87219			  0.38330			 0.14260
	5.25			  10.79926			  0.36566			 0.03848
	5.50			  10.62626			  0.41354			 0.25159
	5.75			  10.59057			  0.46921			 0.38463
	6.00			  10.22308			  -0.07741			 0.06099
	6.25			  10.07117			  0.19727			 0.14598
	6.50			  10.34703			  0.47333			 0.01924
	6.75			  10.68782			  0.54641			 0.04444
	7.00			  10.46494			  0.28868			 0.18561
	7.25			  10.62598			  0.30907			 -0.00235
	7.50			  10.61123			  0.26371			 -0.09742
	7.75			  10.89988			  0.11892			 0.02617
	8.00			  10.68107			  -0.06824			 -0.01106
	8.25			  10.88034			  -0.03663			 -0.20475
	8.50			  10.85027			  0.10793			 -0.51865
	8.75			  10.85013			  0.17666			 -0.27078
	9.00			  10.75373			  0.07196			 0.03298
	9.25			  10.79026			  0.06577			 0.24534
	9.50			  10.67222			  0.09189			 -0.29919
	9.75			  10.75808			  -0.00181			 -0.44586
	10.00			  11.15860			  0.03828			 -0.61121
	10.25			  10.91955			  -0.07191			 -0.57719
	10.50			  10.84043			  0.35008			 -0.53864
	10.75			  10.79083			  0.17643			 -0.14788
	11.00			  10.49993			  0.20690			 0.28263
	11.25			  10.18331			  0.31938			 0.40490
	11.50			  9.99205			  0.38628			 0.27432
	11.75			  9.62456			  0.51663			 0.27129
	12.00			  9.62526			  0.42018			 0.24993
	12.25			  9.76622			  0.46921			 0.03040
	12.50			  9.74120			  0.51778			 0.09100
	12.75			  9.87105			  0.66394			 0.56503
	13.00			  9.85447			  0.73221			 0.35370
	13.25			  10.32890			  0.35581			 -0.02240
	13.50			  10.12668			  0.19361			 -0.08397
	13.75			  10.08283			  0.09876			 -0.11008
	14.00			  9.89944			  -0.21945			 0.26258
	14.25			  9.72996			  0.03805			 -0.10470
	14.50			  9.63426			  0.03805			 -0.17789
	14.75			  9.76959			  0.23576			 -0.33831
	15.00			  9.95340			  0.19132			 -0.40680
	15.25			  10.12654			  -0.12277			 -0.55554
	15.50			  10.24444			  -0.41372			 -0.50079
	15.75			  10.13975			  -0.21601			 -0.30572
	16.00			  9.87639			  0.01812			 -0.34810
	16.25			  9.80753			  0.24355			 -0.31780
	16.50			  9.99908			  0.15604			 -0.48664
	16.75			  9.90155			  0.30014			 -0.61613
	17.00			  9.95270			  -0.19837			 -0.62169
	17.25			  10.05950			  -0.15645			 -0.66298
	17.50			  10.21760			  0.15902			 -0.83244
	17.75			  10.09618			  0.25226			 -0.79923
	18.00			  10.11839			  -0.06458			 -0.67512
	18.25			  10.28688			  0.04951			 -0.39982
	18.50			  10.10504			  0.29945			 -0.34088
	18.75			  10.09379			  0.27081			 -0.46264
	19.00			  10.04812			  0.38261			 -0.22422
	19.25			  9.91167			  0.15077			 -0.02795
	19.50			  9.94188			  0.24309			 0.09266
	19.75			  9.87161			  0.10472			 0.02531
	20.00			  9.95987			  -0.02701			 -0.09490
	20.25			  10.27114			  0.16291			 -0.35887
	20.50			  10.26088			  -0.11017			 -0.13184
	20.75			  10.30375			  -0.45129			 -0.11982
	21.00			  10.30164			  -0.04465			 0.09495
	21.25			  10.38652			  0.06692			 -0.11541
	21.50			  10.53970			  0.19315			 -0.17990
	21.75			  10.50175			  -0.03686			 -0.46161
	22.00			  10.48489			  -0.22517			 -0.70765
	22.25			  10.39903			  -0.26022			 -0.89831
	22.50			  10.44484			  -0.31887			 -0.61355
	22.75			  10.58003			  -0.19677			 0.01282
	23.00			  10.90522			  0.28112			 -0.06741
	23.25			  11.15227			  0.32419			 -0.17823
	23.50			  11.18853			  0.11228			 -0.04267
	23.75			  10.95525			  -0.10925			 0.26144
	24.00			  10.49037			  0.09533			 0.24540
	24.25			  10.74768			  0.09372			 0.19151
	24.50			  10.80600			  0.16291			 0.26917
	24.75			  10.64861			  0.31938			 0.21917
	25.00			  10.80600			  0.06325			 0.29133
	25.25			  10.40437			  -0.06824			 0.61749
	25.50			  10.43458			  -0.35003			 1.14124
	25.75			  10.28309			  -0.18921			 0.66463
	26.00			  10.18514			  -0.02930			 0.54550
	26.25			  10.07552			  0.24653			 0.67293
	26.50			  10.24697			  0.11938			 0.32570
	26.75			  10.40184			  0.05226			 0.18979
	27.00			  10.59436			  -0.29963			 0.30141
	27.25			  10.64327			  -0.75209			 0.42077
	27.50			  10.38441			  -0.84235			 0.20548
	27.75			  10.86629			  -0.66916			 0.29053
	28.00			  11.21677			  -0.67236			 0.48222
	28.25			  11.06725			  -0.40570			 0.27260
	28.50			  10.70398			  -0.47511			 0.32827
	28.75			  10.66013			  -0.24236			 0.49923
	29.00			  10.66308			  -0.12323			 0.57803
	29.25			  10.58101			  -0.16080			 0.35479
	29.50			  10.57061			  -0.43846			 0.25456
	29.75			  10.66885			  -0.19722			 0.31533
	30.00			  10.47224			  0.49532			 0.22169
	30.25			  10.47744			  0.38765			 0.32272
	30.50			  10.39945			  0.46096			 0.48262
	30.75			  10.21142			  0.48731			 0.22077
	31.00			  10.42769			  0.50838			 -0.07257
	31.25			  10.70777			  0.37734			 -0.33355
	31.50			  10.77677			  0.41697			 -0.38733
	31.75			  10.74375			  0.34504			 -0.40113
	32.00			  10.74684			  -0.58004			 -0.45995
	32.25			  10.78886			  -0.55026			 -0.29495
	32.50			  10.79954			  -0.44602			 -0.05699
	32.75			  11.10983			  -0.34178			 -0.18499
	33.00			  10.84887			  -0.58370			 -0.15619
	33.25			  10.76117			  -0.97247			 0.12547
	33.50			  10.92602			  -0.74201			 0.24145
	33.75			  10.68416			  -0.67328			 -0.06971
	34.00			  10.68430			  -0.89069			 -0.28138
	34.25			  10.67194			  -0.55965			 -0.04548
	34.50			  10.73391			  -0.41899			 0.16814
	34.75			  10.60350			  -0.32918			 0.13464
	35.00			  10.68501			  -0.38279			 0.11471
	35.25			  10.59605			  -0.49711			 -0.00442
	35.50			  10.58888			  -0.42036			 0.32810
	35.75			  10.33284			  -0.18096			 0.28469
	36.00			  10.23461			  -0.13354			 0.16837
	36.25			  10.21100			  -0.34980			 0.15766
	36.50			  10.34253			  -0.36652			 0.33245
	36.75			  10.15844			  -0.28703			 0.22587
	37.00			  9.99627			  -0.34247			 0.43199
	37.25			  9.97659			  -0.54063			 0.35977
	37.50			  9.73221			  -0.58462			 0.08727
	37.75			  9.99064			  -0.24694			 0.02451
	38.00			  10.29995			  -0.06412			 0.14415
	38.25			  10.17614			  0.05661			 -0.00138
	38.50			  10.43922			  0.07173			 0.31258
	38.75			  10.34141			  0.26921			 0.41166
	39.00			  10.58523			  0.15077			 0.72803
	39.25			  10.72674			  0.15718			 0.37724
	39.50			  10.72745			  0.15924			 0.53405
	39.75			  10.70609			  -0.19402			 0.31298
	40.00			  10.80080			  -0.27420			 0.45788
	40.25			  10.47786			  -0.32781			 0.53811
	40.50			  10.57160			  -0.67488			 0.35376
	40.75			  10.45707			  -0.72345			 0.02468
	41.00			  10.23292			  -0.87992			 0.47156
	41.25			  10.27409			  -0.77041			 0.68433
	41.50			  10.48461			  -0.48336			 0.21911
	41.75			  10.34295			  -0.44579			 -0.12383
	42.00			  10.31134			  -0.49023			 -0.03299
	42.25			  10.18092			  -0.28978			 -0.04857
	42.50			  10.16842			  0.07769			 -0.02080
	42.75			  10.07834			  0.04172			 0.14409
	43.00			  10.00709			  -0.15370			 0.15697
	43.25			  10.26735			  -0.01326			 0.34230
	43.50			  10.47351			  0.01446			 -0.14863
	43.75			  10.46255			  -0.20593			 -0.43029
	44.00			  10.26847			  0.15260			 -0.16804
	44.25			  10.34197			  0.38101			 -0.26231
	44.50			  10.42334			  0.23507			 -0.43670
	44.75			  10.91983			  0.06394			 -0.35062
	45.00			  10.97675			  -0.27557			 -0.34186
	45.25			  10.84381			  -0.35392			 -0.46642
	45.50			  10.63090			  -0.81875			 -0.58887
	45.75			  10.19413			  -0.48680			 -0.80220
	46.00			  10.52677			  -0.19608			 -0.70880
	46.25			  10.69625			  0.07379			 -0.28001
	46.50			  10.70328			  0.09670			 0.00108
	46.75			  10.45144			  0.17001			 -0.30687
	47.00			  10.50555			  -0.21738			 -0.32599
	47.25			  11.02959			  -0.47236			 -0.31700
	47.50			  10.70918			  0.16978			 -0.64774
	47.75			  10.32806			  0.24997			 -0.75782
	48.00			  10.09351			  0.47058			 -0.76154
	48.25			  10.17432			  0.71434			 -0.32874
	48.50			  10.31035			  0.96038			 -0.23957
	48.75			  10.19048			  0.88158			 -0.64975
	49.00			  10.23952			  1.28844			 -0.75788
	49.25			  10.30529			  1.09211			 -0.79900
	49.50			  10.48264			  0.77436			 -0.61687
	49.75			  10.49220			  0.92075			 -0.44008
	50.00			  10.42713			  0.96244			 -0.17634
	50.25			  10.54841			  1.24492			 -0.24467
	50.50			  10.63259			  1.69256			 -0.15481
	50.75			  10.49908			  1.45545			 -0.25143
	51.00			  10.58678			  1.19772			 0.15932
	51.25			  10.35096			  1.21376			 0.14735
	51.50			  10.27775			  1.70700			 0.19323
	51.75			  10.46297			  1.60230			 0.38446
	52.00			  10.41631			  1.51433			 0.41636
	52.25			  10.52255			  1.68134			 0.47059
	52.50			  10.81570			  1.38077			 0.38165
	52.75			  10.63175			  1.19910			 0.58559
	53.00			  10.20509			  1.22934			 0.23440
	53.25			  10.18064			  1.16473			 0.35427
	53.50			  10.51553			  0.74183			 0.17776
	53.75			  10.46957			  0.97963			 -0.04634
	54.00			  10.59043			  0.78100			 0.16121
	54.25			  10.83074			  0.52808			 0.34041
	54.50			  10.61530			  0.44790			 -0.10224
	54.75			  10.63470			  0.41949			 -0.22210
	55.00			  10.62050			  0.35466			 -0.20756
	55.25			  10.82933			  0.36566			 0.16041
	55.50			  10.76384			  0.27883			 0.33148
	55.75			  10.45931			  0.05340			 0.45759
	56.00			  10.65788			  0.11251			 0.45221
	56.25			  10.40451			  0.25959			 0.46464
	56.50			  10.29742			  0.17918			 0.72270
	56.75			  10.28449			  0.13908			 0.56778
	57.00			  10.20945			  0.28731			 0.47993
	57.25			  10.14874			  0.89967			 0.45513
	57.50			  10.14523			  0.75260			 0.36664
	57.75			  10.06456			  0.90792			 0.45226
	58.00			  10.04714			  0.96451			 0.46097
	58.25			  10.22645			  0.94274			 0.50135
	58.50			  10.18500			  0.71571			 0.51045
	58.75			  10.25653			  0.83621			 0.30657
	59.00			  9.93457			  1.04606			 0.32644
	59.25			  9.82650			  1.14824			 0.24689
	59.50			  9.99008			  1.09601			 0.49006
	59.75			  9.83395			  1.08868			 0.44797
	60.00			  9.97561			  1.09898			 0.51984
	60.25			  10.38188			  0.79864			 0.34127
	60.50			  10.40957			  0.82361			 0.17043
	60.75			  10.14270			  0.93427			 0.26665
	61.00			  10.25540			  1.03805			 0.49533
	61.25			  10.21128			  1.01857			 0.13933
	61.50			  9.87232			  1.06668			 0.25995
	61.75			  9.81315			  1.39085			 0.24637
	62.00			  9.57116			  1.36038			 0.48886
	62.25			  9.64677			  1.60665			 0.08407
	62.50			  9.67754			  1.61673			 -0.19032
	62.75			  9.73614			  1.71799			 -0.59202
	63.00			  9.90211			  1.96519			 -0.44752
	63.25			  10.11586			  1.56381			 0.13092
	63.50			  10.17249			  1.28318			 0.40250
	63.75			  10.10335			  1.15694			 0.26361
	64.00			  10.09548			  1.05569			 0.55478
	64.25			  10.18064			  1.04400			 0.47460
	64.50			  10.49824			  1.14389			 0.28790
	64.75			  10.74038			  0.89532			 0.38027
	65.00			  10.67587			  0.84148			 0.47099
	65.25			  10.56050			  0.82407			 0.77848
	65.50			  10.87332			  0.92212			 0.61703
	65.75			  11.15677			  0.73450			 0.28223
	66.00			  11.19092			  0.89326			 0.33079
	66.25			  11.38583			  1.08959			 0.39499
	66.50			  11.55742			  1.18971			 0.17965
	66.75			  11.25612			  0.88707			 0.33606
	67.00			  11.21340			  0.91479			 0.02640
	67.25			  10.98307			  0.69074			 0.03814
	67.50			  11.13442			  0.47287			 0.18492
	67.75			  10.81640			  0.55741			 -0.11695
	68.00			  10.59422			  0.30289			 -0.13465
	68.25			  10.45130			  0.18032			 -0.36918
	68.50			  10.43599			  0.58559			 -0.36179
	68.75			  10.53689			  0.47585			 -0.38441
	69.00			  10.53506			  0.37734			 -0.43819
	69.25			  10.31752			  0.30586			 -0.16758
	69.50			  10.15225			  -0.11475			 -0.10453
	69.75			  10.05220			  -0.11933			 -0.37089
	70.00			  10.11319			  -0.27626			 -0.20372
	70.25			  9.78912			  -0.04419			 -0.31895
	70.50			  9.83971			  -0.07832			 -0.29369
	70.75			  10.24177			  -0.42265			 -0.63566
	71.00			  10.48194			  -0.81898			 -0.76063
	71.25			  10.64861			  -0.34018			 -0.30062
	71.50			  10.74009			  0.06784			 -0.17176
	71.75			  10.35265			  -0.22907			 0.08075
	72.00			  10.44540			  -0.16240			 -0.17686
	72.25			  10.49712			  0.11045			 -0.16999
	72.50			  10.41533			  -0.06412			 0.03814
	72.75			  10.69245			  -0.00983			 -0.00436
	73.00			  10.53309			  -0.07558			 -0.25418
	73.25			  10.44470			  -0.02174			 -0.11907
	73.50			  10.44526			  0.39017			 -0.00860
	73.75			  10.16743			  0.67974			 -0.30944
	74.00			  10.39242			  0.87860			 -0.23728
	74.25			  10.09913			  0.81262			 -0.39031
	74.50			  10.04278			  0.83713			 -0.43441
	74.75			  10.53970			  0.62911			 -0.73102
	75.00			  10.38399			  0.29326			 -0.82969
	75.25			  10.65676			  0.13382			 -0.41574
	75.50			  10.79687			  0.40254			 -0.25904
	75.75			  10.50752			  0.19544			 -0.29879
	76.00			  10.21507			  0.55237			 -0.35022
	76.25			  10.22055			  0.80643			 -0.31328
	76.50			  10.43964			  0.86348			 -0.28470
	76.75			  10.42264			  1.03140			 -0.17434
	77.00			  10.41870			  0.67241			 -0.13253
	77.25			  10.42854			  0.25523			 -0.47507
	77.50			  10.45187			  0.39613			 -0.26191
	77.75			  10.54138			  0.26005			 -0.14926
	78.00			  10.69639			  0.26027			 -0.08769
	78.25			  10.84338			  0.10930			 -0.21088
	78.50			  10.88807			  0.13427			 -0.01352
	78.75			  10.66505			  0.32717			 -0.23722
	79.00			  10.41055			  0.15650			 -0.12543
	79.25			  10.20102			  -0.03067			 -0.06598
	79.50			  10.10827			  -0.07558			 -0.17663
	79.75			  10.01158			  -0.05977			 -0.01255
	80.00			  10.01482			  -0.27489			 0.09833
	80.25			  9.77999			  -0.09024			 0.13189
	80.50			  9.47785			  -0.24465			 -0.01066
	80.75			  9.42416			  -0.16149			 -0.26162
	81.00			  9.36964			  -0.40959			 -0.37496
	81.25			  9.52591			  -0.12575			 -0.05607
	81.50			  9.43105			  -0.16744			 -0.10264
	81.75			  9.55247			  0.03508			 -0.10378
	82.00			  9.46183			  -0.14064			 -0.11237
	82.25			  9.56455			  -0.21326			 -0.12915
	82.50			  9.71408			  -0.18302			 0.09936
	82.75			  9.76846			  -0.19104			 0.08779
	83.00			  9.84801			  -0.02357			 0.05681
	83.25			  9.75933			  0.34069			 0.15130
	83.50			  9.83283			  0.40964			 -0.00006
	83.75			  9.69075			  0.12832			 0.11093
	84.00			  9.84576			  -0.05702			 0.38360
	84.25			  9.85349			  0.32763			 0.30072
	84.50			  9.64691			  0.27196			 0.34156
	84.75			  9.77380			  0.16245			 0.11895
	85.00			  10.22800			  0.11801			 0.05303
	85.25			  10.22870			  0.08891			 -0.03265
	85.50			  10.16884			  0.03599			 -0.10092
	85.75			  10.22252			  -0.22311			 0.35777
	86.00			  10.15366			  -0.05794			 0.01191
	86.25			  10.08143			  -0.00983			 0.32226
	86.50			  10.25133			  0.33450			 0.35164
	86.75			  10.37851			  0.00415			 0.25313
	87.00			  10.36572			  0.22614			 0.24672
	87.25			  10.37120			  0.42591			 0.10239
	87.50			  10.39734			  0.23782			 0.35605
	87.75			  10.30375			  0.27287			 0.28446
	88.00			  10.28759			  0.17643			 0.35840
	88.25			  10.18303			  0.21835			 0.11477
	88.50			  10.00231			  0.43897			 0.18721
	88.75			  10.14045			  0.18330			 0.28102
	89.00			  10.15282			  0.52465			 0.40925
	89.25			  9.77128			  0.65317			 0.28435
	89.50			  9.66855			  0.39315			 0.11757
	89.75			  9.90534			  0.44721			 -0.19765
	90.00			  9.67909			  0.03279			 -0.27560
	90.25			  9.87077			  0.02087			 0.06448
	90.50			  9.79250			  0.25432			 -0.12371
	90.75			  9.57538			  0.34206			 -0.09599
	91.00			  9.62892			  0.39086			 0.04449
	91.25			  9.86923			  0.54275			 0.20972
	91.50			  10.01566			  0.76726			 0.29798
	91.75			  9.83465			  0.54091			 -0.17583
	92.00			  9.68372			  0.46394			 -0.17537
	92.25			  9.75638			  0.29189			 0.03796
	92.50			  9.87119			  0.26463			 0.01380
	92.75			  9.77774			  0.46554			 0.02668
	93.00			  9.60545			  0.63278			 -0.29656
	93.25			  9.51354			  0.67997			 -0.14611
	93.50			  9.74921			  0.52579			 -0.13133
	93.75			  9.90956			  0.33794			 -0.37903
	94.00			  10.34422			  0.13908			 -0.24352
	94.25			  10.57652			  0.01744			 -0.31947
	94.50			  10.39439			  -0.01487			 -0.05516
	94.75			  10.43964			  0.00644			 0.15382
	95.00			  10.52550			  -0.07535			 0.14271
	95.25			  10.57877			  -0.07787			 -0.01845
	95.50			  10.35125			  0.08387			 0.17135
	95.75			  9.97209			  -0.03617			 -0.15630
	96.00			  9.88834			  0.31801			 -0.10630
	96.25			  9.94610			  0.36589			 -0.21855
	96.50			  10.11417			  0.53267			 -0.65674
	96.75			  10.50049			  0.55351			 -0.47994
	97.00			  10.35841			  0.32992			 -0.76738
	97.25			  10.29560			  0.46325			 -0.49850
	97.50			  10.20285			  0.43599			 -0.36671
	97.75			  10.31190			  0.33817			 -0.22331
	98.00			  10.54209			  0.09693			 -0.25538
	98.25			  10.49670			  0.01011			 -0.29827
	98.50			  10.29461			  0.05409			 -0.25309
	98.75			  10.30867			  0.04676			 -0.16151
	99.00			  9.94146			  -0.05152			 -0.09181
	99.25			  9.96746			  0.04493			 0.41819
	99.50			  9.79011			  -0.17775			 0.33961
	99.75			  10.16799			  0.02431			 0.27203
	100.00			  10.14705			  -0.17683			 0.10085
	100.25			  10.37050			  -0.21532			 0.32266
	100.50			  10.40605			  0.12626			 0.42145
	100.75			  10.56879			  -0.27305			 0.66045
	101.00			  10.84479			  -0.19356			 0.41996
	101.25			  10.55937			  -0.31383			 0.52317
	101.50			  10.65128			  -0.15278			 0.51314
	101.75			  10.34436			  -0.05083			 0.51956
	102.00			  10.39720			  -0.00272			 0.62167
	102.25			  10.67882			  -0.50994			 0.57168
	102.50			  10.65282			  -0.62334			 0.66400
	102.75			  10.78015			  -1.02494			 0.37186
	103.00			  10.94513			  -0.90214			 0.37901
	103.25			  10.78535			  -0.72116			 0.47265
	103.50			  10.32693			  -0.49550			 0.53726
	103.75			  10.45707			  -0.72047			 0.27948
	104.00			  10.58129			  -0.40982			 -0.06008
	104.25			  10.53661			  -0.49092			 -0.11781
	104.50			  10.50836			  -0.68840			 -0.56035
	104.75			  10.60659			  -1.03021			 -0.36145
	105.00			  11.04505			  -1.03685			 -0.08225
	105.25			  10.79518			  -1.00776			 0.00750
	105.50			  10.53576			  -0.92162			 0.00790
	105.75			  10.80628			  -1.02631			 -0.01209
	106.00			  10.36839			  -1.14086			 -0.02085
	106.25			  10.33958			  -0.96446			 0.41223
	106.50			  10.30206			  -0.98920			 0.46458
	106.75			  10.04953			  -0.86526			 0.37856
	107.00			  10.21802			  -0.83364			 -0.01106
	107.25			  10.22702			  -1.04785			 0.18613
	107.50			  10.38469			  -1.00180			 0.19821
	107.75			  10.47252			  -0.90673			 0.18670
	108.00			  10.43992			  -0.65885			 0.16264
	108.25			  10.30065			  -0.88931			 0.40461
	108.50			  10.35349			  -0.58210			 0.16574
	108.75			  10.57343			  -0.45747			 0.00452
	109.00			  10.52761			  -0.12964			 0.04094
	109.25			  10.57455			  -0.21670			 -0.10138
	109.50			  10.22884			  -0.27420			 -0.08368
	109.75			  10.39074			  -0.43640			 0.23440
	110.00			  10.02226			  -0.14659			 0.14466
	110.25			  10.18022			  -0.37500			 -0.02543
	110.50			  10.00217			  -0.04075			 0.02153
	110.75			  9.56231			  -0.43915			 0.21470
	111.00			  9.44271			  -0.49115			 0.57059
	111.25			  9.37104			  -0.58393			 0.40542
	111.50			  9.25215			  -0.60157			 0.39139
	111.75			  9.28687			  -0.27122			 0.27083
	112.00			  9.07986			  -0.47488			 0.42237
	112.25			  9.21393			  -0.28222			 0.25560
	112.50			  9.38060			  -0.37202			 0.47403
	112.75			  9.55036			  -0.69596			 0.23200
	113.00			  9.60432			  -0.63846			 -0.17153
	113.25			  9.57060			  -0.23388			 -0.30051
	113.50			  9.59393			  -0.31658			 -0.10206
	113.75			  9.83255			  -0.74888			 -0.02291
	114.00			  9.76228			  -0.59974			 -0.18448
	114.25			  9.90211			  -0.54957			 0.05618
	114.50			  10.06442			  -0.43617			 -0.12434
	114.75			  10.16434			  -0.23571			 0.02015
	115.00			  9.93991			  -0.15347			 0.28893
	115.25			  9.76720			  -0.11200			 0.02863
	115.50			  9.90661			  -0.03709			 -0.01192
	115.75			  9.77535			  -0.45793			 -0.09725
	116.00			  9.68316			  -0.64189			 -0.11037
	116.25			  9.41362			  -0.67282			 0.07714
	116.50			  9.33914			  -0.68680			 0.25078
	116.75			  9.57819			  -0.83868			 0.26218
	117.00			  9.42234			  -0.53055			 0.21173
	117.25			  9.64044			  -0.75965			 0.30319
	117.50			  9.75582			  -0.97706			 0.21883
	117.75			  9.82538			  -0.97683			 0.15228
	118.00			  10.03098			  -0.76377			 -0.09777
	118.25			  10.00118			  -0.53514			 -0.47496
	118.50			  9.49092			  -0.66870			 -0.31059
	118.75			  9.51270			  -0.69229			 -0.36368
	119.00			  9.47490			  -0.36652			 0.06150
	119.25			  9.72462			  -0.11681			 0.25938
	119.50			  9.42332			  -0.01097			 -0.15447
	119.75			  9.41756			  -0.21051			 -0.10487
	120.00			  9.71928			  -0.17706			 -0.07412
	120.25			  9.65407			  -0.09482			 -0.16134
	120.50			  9.81526			  -0.45129			 -0.43561
	120.75			  9.54460			  -0.51704			 -0.39741
	121.00			  9.62063			  -0.37935			 -0.26889
	121.25			  9.75807			  -0.33857			 -0.16185
	121.50			  9.55149			  -0.43113			 0.28578
	121.75			  9.30724			  -0.76011			 0.41195
	122.00			  9.30795			  -0.65770			 0.13911
	122.25			  9.30036			  -0.45106			 0.29145
	122.50			  9.42599			  -0.20639			 0.22077
	122.75			  9.32284			  -0.45198			 -0.01198
	123.00			  9.53518			  -0.44258			 0.06110
	123.25			  9.68654			  -0.15736			 -0.16718
	123.50			  9.83648			  -0.22976			 -0.08872
	123.75			  9.84098			  -0.04007			 -0.32662
	124.00			  9.91490			  -0.43869			 -0.37244
	124.25			  9.85039			  -0.60020			 -0.27926
	124.50			  9.82355			  -0.49482			 -0.35784
	124.75			  9.96099			  -0.56538			 -0.24633
	125.00			  9.81048			  -0.83204			 -0.37072
	125.25			  9.92698			  -0.88038			 -0.55514
	125.50			  9.96324			  -0.52620			 -0.13316
	125.75			  9.83592			  -0.53285			 0.16138
	126.00			  9.94244			  -0.67580			 0.09398
	126.25			  10.01158			  -0.74567			 -0.09462
	126.50			  10.21423			  -0.52918			 0.05658
	126.75			  10.10602			  -0.65976			 -0.16718
	127.00			  10.05950			  -0.93422			 -0.02486
	127.25			  10.14424			  -0.94178			 0.09890
	127.50			  10.17741			  -0.64991			 0.11230
	127.75			  10.09014			  -0.70398			 0.15835
	128.00			  10.01172			  -0.35873			 0.24786
	128.25			  10.06639			  -0.32025			 -0.06117
	128.50			  9.97476			  -0.51108			 0.20978
	128.75			  10.20158			  -0.61165			 0.06328
	129.00			  10.17896			  -0.65174			 0.06494
	129.25			  10.08101			  -0.62609			 -0.10413
	129.50			  9.95664			  -0.46137			 -0.16317
	129.75			  10.00456			  -0.71200			 -0.24702
	130.00			  10.07651			  -0.83525			 0.06248
	130.25			  9.97350			  -0.82104			 0.01380
	130.50			  9.97968			  -0.93582			 0.42025
	130.75			  10.06976			  -0.77362			 0.31075
	131.00			  10.30220			  -0.64533			 0.37930
	131.25			  10.44610			  -0.54453			 0.70655
	131.50			  10.45229			  -0.27832			 0.71840
	131.75			  10.24163			  -0.39516			 0.34328
	132.00			  10.29813			  -0.48634			 0.05366
	132.25			  10.12049			  -0.60730			 -0.16678
	132.50			  9.94905			  -0.52941			 -0.11398
	132.75			  9.97519			  -0.56927			 -0.23488
	133.00			  9.91658			  -0.57821			 -0.33355
	133.25			  9.81962			  -0.17546			 0.17954
	133.50			  9.50089			  -0.10948			 0.25554
	133.75			  9.87822			  0.01973			 0.26642
	134.00			  9.83072			  -0.00204			 0.13739
	134.25			  9.97814			  -0.16927			 -0.21426
	134.50			  10.16069			  -0.37042			 -0.32886
	134.75			  10.07047			  -0.35163			 -0.25893
	135.00			  9.82608			  -0.26114			 -0.08408
	135.25			  9.76003			  0.04561			 -0.48177
	135.50			  9.84829			  0.11870			 -0.45640
	135.75			  9.78997			  0.17207			 -0.77156
	136.00			  9.80318			  0.19659			 -0.59929
	136.25			  9.82327			  -0.07351			 -0.86709
	136.50			  9.86754			  -0.26320			 -0.46986
	136.75			  9.88820			  -0.10513			 -0.35056
	137.00			  10.25920			  0.04676			 -0.72466
	137.25			  10.34591			  0.25088			 -0.34529
	137.50			  10.31246			  0.18330			 -0.47656
	137.75			  10.24374			  -0.27145			 -0.84069
	138.00			  10.22041			  -0.35576			 -0.38756
	138.25			  10.26749			  -0.55575			 -0.32943
	138.50			  9.99669			  -0.16309			 -0.06570
	138.75			  10.15310			  -0.10078			 0.00652
	139.00			  10.13497			  0.06280			 0.16831
	139.25			  9.80458			  0.21743			 -0.12784
	139.50			  9.92741			  0.49784			 -0.04760
	139.75			  10.10237			  0.14550			 0.07004
	140.00			  10.09436			  -0.12025			 -0.11083
	140.25			  9.87344			  -0.46435			 -0.05270
	140.50			  9.77732			  -0.40936			 -0.17348
	140.75			  10.11024			  -0.29207			 0.04707
	141.00			  9.94511			  -0.41738			 -0.01908
	141.25			  10.03168			  -0.47030			 0.01695
	141.50			  9.87316			  -0.13697			 -0.08729
	141.75			  9.81301			  -0.19425			 -0.17675
	142.00			  9.56975			  -0.42586			 -0.09084
	142.25			  9.33816			  -0.34613			 -0.09027
	142.50			  9.64901			  -0.19058			 0.00120
	142.75			  10.11628			  -0.09505			 -0.14026
	143.00			  9.84435			  -0.50352			 -0.28487
	143.25			  10.02128			  -0.44006			 -0.43034
	143.50			  10.15858			  -0.61074			 -0.23969
	143.75			  10.03589			  -0.75552			 -0.36053
	144.00			  9.79137			  -0.68359			 -0.41791
	144.25			  9.74008			  -0.24442			 -0.76876
	144.50			  10.03421			  -0.11842			 -0.88920
	144.75			  9.74429			  -0.40112			 -0.96388
	145.00			  9.74893			  -0.40203			 -0.95163
	145.25			  9.81625			  -0.48084			 -0.92076
	145.50			  9.92459			  -0.85610			 -0.54546
	145.75			  9.92881			  -0.75942			 -0.34541
	146.00			  9.74851			  -0.64373			 -0.36116
	146.25			  9.90295			  -0.81761			 -0.34048
	146.50			  10.09197			  -0.81944			 -0.29576
	146.75			  9.64789			  -0.91635			 0.10154
	147.00			  9.75427			  -0.81875			 0.10864
	147.25			  9.85672			  -0.92299			 0.24700
	147.50			  9.82608			  -0.48519			 0.22312
	147.75			  9.94764			  -0.51910			 0.38108
	148.00			  9.70438			  -0.58531			 0.27616
	148.25			  9.84182			  -0.31567			 0.06935
	148.50			  9.78083			  -0.28588			 0.04936
	148.75			  9.65716			  -0.16332			 0.41023
	149.00			  9.23107			  -0.26549			 0.47615
	149.25			  9.64901			  -0.23044			 -0.01530
	149.50			  9.62779			  -0.35942			 0.10887
	149.75			  9.31146			  -0.33537			 0.65122
	150.00			  9.24738			  -0.35072			 0.35828
	150.25			  9.26438			  -0.29413			 0.40788
	150.50			  9.17922			  -0.42678			 0.25645
	150.75			  9.33999			  -0.52506			 0.20766
	151.00			  9.11205			  -0.64739			 0.08327
	151.25			  9.19903			  -0.40776			 0.07204
	151.50			  9.48389			  -0.14820			 -0.13797
	151.75			  9.55823			  -0.49390			 -0.17623
	152.00			  9.23445			  -0.40936			 -0.54815
	152.25			  9.36894			  -0.33262			 -0.87683
	152.50			  9.37301			  -0.46251			 -0.31420
	152.75			  9.50342			  -0.38027			 -0.41534
	153.00			  9.56793			  -0.08428			 -0.57621
	153.25			  9.61332			  -0.22930			 -0.47547
	153.50			  9.68696			  -0.23388			 -0.71246
	153.75			  9.58184			  -0.31773			 -0.33510
	154.00			  9.62836			  -0.07512			 -0.12589
	154.25			  9.27661			  0.06623			 0.20348
	154.50			  9.38257			  0.26646			 0.24265
	154.75			  9.46281			  0.13061			 0.18870
	155.00			  9.46871			  0.05821			 -0.03929
	155.25			  9.37442			  0.25959			 -0.23585
	155.50			  9.37090			  0.36612			 0.15033
	155.75			  9.35994			  0.08410			 0.20926
	156.00			  9.48965			  0.07723			 0.12250
	156.25			  9.29502			  -0.00616			 0.30170
	156.50			  9.34631			  -0.30788			 0.27896
	156.75			  9.41587			  -0.09047			 0.18991
	157.00			  9.72349			  -0.25037			 0.21184
	157.25			  9.78617			  -0.24465			 0.56091
	157.50			  9.76116			  -0.40868			 0.31642
	157.75			  9.76776			  -0.39379			 0.24741
	158.00			  9.81793			  -0.40662			 0.31281
	158.25			  9.56919			  -0.60249			 -0.00121
	158.50			  9.64536			  -0.75438			 -0.08460
	158.75			  9.69806			  -0.72780			 -0.05739
	159.00			  9.64283			  -0.40684			 -0.16781
	159.25			  9.65815			  -0.66824			 0.06351
	159.50			  9.77212			  -0.28084			 0.08309
	159.75			  9.68752			  -0.57385			 0.24781
	160.00			  9.75835			  -0.41624			 0.34356
	160.25			  9.65688			  -0.31773			 0.64447
	160.50			  9.64128			  -0.13445			 0.23263
	160.75			  9.55120			  0.16085			 0.25594
	161.00			  9.79601			  0.02752			 0.19953
	161.25			  9.49246			  -0.44579			 0.08916
	161.50			  9.71717			  -0.45885			 -0.21443
	161.75			  9.59364			  -0.40868			 -0.16266
	162.00			  9.29319			  -0.58851			 0.01259
	162.25			  9.08745			  -0.53124			 -0.00304
	162.50			  8.75285			  -0.74499			 -0.32130
	162.75			  8.71786			  -0.48451			 -0.29467
	163.00			  8.26703			  -0.13102			 -0.65977
	163.25			  8.47614			  -0.23754			 -0.48103
	163.50			  8.79107			  0.00484			 -0.21013
	163.75			  8.92500			  0.20758			 -0.41391
	164.00			  8.91741			  0.44744			 -0.33098
	164.25			  8.84335			  0.49143			 -0.58251
	164.50			  8.93104			  0.53198			 -0.78949
	164.75			  9.17472			  0.65775			 -0.39821
	165.00			  9.07733			  0.54916			 -0.49552
	165.25			  9.01789			  0.28845			 -0.08173
	165.50			  8.79740			  -0.04808			 -0.31408
	165.75			  8.81257			  -0.38783			 -0.52026