--------------TurbSim v2.00.* User Time Series Input File-----------------------
     Time series input from low-res turbsim run
--------------------------------------------------------------------------------
          3 nComp - Number of velocity components in the file
          1 nPoints - Number of time series points contained in this file (-)
          1 RefPtID - Index of the reference point (1-nPoints)
     Pointyi Pointzi ! nPoints listed in order of increasing height
       (m)     (m)
       4.30608   94.00000
--------Time Series-------------------------------------------------------------
Elapsed Time         Point01u             Point01v           Point01w
         (s)            (m/s)                (m/s)              (m/s)
	0.00			  9.35692			  -0.34037			 -0.24093
	0.25			  9.46621			  -0.29544			 -0.27338
	0.50			  9.57358			  -0.29693			 -0.41012
	0.75			  9.67453			  -0.26934			 -0.32835
	1.00			  9.71150			  -0.31706			 -0.19499
	1.25			  9.72718			  -0.36535			 -0.21548
	1.50			  9.64526			  -0.35752			 -0.10723
	1.75			  9.59723			  -0.34614			 -0.06907
	2.00			  9.48161			  -0.37653			 -0.22876
	2.25			  9.43449			  -0.45743			 -0.18263
	2.50			  9.46693			  -0.36068			 -0.04993
	2.75			  9.51704			  -0.32564			 -0.19489
	3.00			  9.74874			  -0.27885			 -0.06727
	3.25			  9.88784			  -0.21491			 0.05571
	3.50			  9.64861			  -0.52398			 0.11553
	3.75			  9.61771			  -0.45557			 0.09980
	4.00			  9.74503			  -0.47626			 -0.05791
	4.25			  9.81081			  -0.43711			 0.00075
	4.50			  9.70806			  -0.41213			 -0.17632
	4.75			  9.55546			  -0.45967			 0.02093
	5.00			  9.41990			  -0.47607			 0.08987
	5.25			  9.36771			  -0.38921			 0.12294
	5.50			  9.16627			  -0.24045			 0.17113
	5.75			  9.03642			  -0.32601			 -0.05791
	6.00			  9.06750			  -0.28426			 -0.10587
	6.25			  8.96937			  -0.28221			 -0.07002
	6.50			  8.96565			  -0.44382			 0.07050
	6.75			  8.90811			  -0.44923			 -0.02019
	7.00			  9.04992			  -0.53200			 -0.14526
	7.25			  9.28806			  -0.34204			 -0.16799
	7.50			  9.40024			  -0.42444			 -0.13788
	7.75			  9.44999			  -0.30886			 -0.18663
	8.00			  9.44672			  -0.43059			 -0.05595
	8.25			  9.59461			  -0.31706			 0.05433
	8.50			  9.59279			  -0.20242			 0.03872
	8.75			  9.52719			  -0.15768			 0.09832
	9.00			  9.39589			  -0.08573			 -0.02896
	9.25			  9.41392			  -0.06821			 0.07526
	9.50			  9.22870			  -0.12245			 -0.02189
	9.75			  9.30754			  -0.21007			 0.12083
	10.00			  9.32213			  -0.18546			 0.01705
	10.25			  9.29204			  -0.19422			 -0.11691
	10.50			  9.23170			  -0.23299			 0.02273
	10.75			  9.28371			  -0.25294			 -0.17799
	11.00			  9.38565			  -0.33589			 -0.23333
	11.25			  9.42144			  -0.32359			 -0.23926
	11.50			  9.46938			  -0.24175			 -0.07493
	11.75			  9.28217			  -0.14985			 -0.03520
	12.00			  9.39408			  0.00095			 -0.22179
	12.25			  9.50309			  0.06675			 -0.06740
	12.50			  9.50916			  -0.07958			 -0.07762
	12.75			  9.50870			  -0.07790			 -0.14122
	13.00			  9.66275			  -0.17782			 -0.12416
	13.25			  9.60249			  -0.14296			 0.01380
	13.50			  9.51169			  0.09956			 0.00687
	13.75			  9.49556			  -0.26897			 0.01957
	14.00			  9.58283			  -0.40710			 -0.00909
	14.25			  9.53652			  -0.48409			 0.02159
	14.50			  9.49067			  -0.43152			 0.13146
	14.75			  9.58491			  -0.45520			 0.07274
	15.00			  9.61663			  -0.45352			 0.04263
	15.25			  9.72971			  -0.34186			 0.04632
	15.50			  9.68876			  -0.25219			 -0.02631
	15.75			  9.79930			  -0.19515			 0.11648
	16.00			  9.94538			  -0.37839			 0.14414
	16.25			  10.07649			  -0.57413			 0.22099
	16.50			  10.02620			  -0.63117			 0.08179
	16.75			  9.81244			  -0.62278			 -0.01760
	17.00			  9.69474			  -0.60656			 0.11251
	17.25			  9.69981			  -0.54393			 0.06044
	17.50			  9.88485			  -0.66770			 -0.05173
	17.75			  10.01669			  -0.51019			 -0.12268
	18.00			  10.02321			  -0.49453			 0.02134
	18.25			  9.92109			  -0.54635			 0.08882
	18.50			  9.90369			  -0.48222			 0.11320
	18.75			  9.92970			  -0.52137			 0.05704
	19.00			  10.02793			  -0.49360			 0.13578
	19.25			  9.95571			  -0.43133			 -0.12167
	19.50			  9.87932			  -0.52827			 -0.17332
	19.75			  9.76677			  -0.55660			 -0.05598
	20.00			  9.83165			  -0.42891			 -0.16966
	20.25			  10.00799			  -0.43022			 -0.12955
	20.50			  10.25446			  -0.45482			 -0.02038
	20.75			  10.38123			  -0.34503			 -0.06207
	21.00			  10.36121			  -0.26077			 -0.12671
	21.25			  10.27422			  -0.35099			 -0.04044
	21.50			  10.05982			  -0.27531			 0.04212
	21.75			  9.90215			  -0.14836			 0.01989
	22.00			  9.96413			  -0.14762			 0.02077
	22.25			  9.98389			  -0.16831			 0.03458
	22.50			  9.93631			  -0.14389			 0.08179
	22.75			  10.06354			  -0.25275			 0.06448
	23.00			  10.08374			  -0.30868			 0.19469
	23.25			  9.91040			  -0.32023			 0.13067
	23.50			  10.11147			  -0.34447			 0.17063
	23.75			  10.12796			  -0.42984			 0.17258
	24.00			  10.06897			  -0.37895			 0.17198
	24.25			  9.99440			  -0.28854			 0.03626
	24.50			  9.92390			  -0.32396			 -0.05466
	24.75			  9.90288			  -0.22218			 -0.06052
	25.00			  9.94275			  -0.21976			 0.18327
	25.25			  10.04714			  -0.06802			 0.38456
	25.50			  10.06037			  -0.00930			 0.37803
	25.75			  10.06535			  -0.16533			 0.25653
	26.00			  10.01669			  -0.21230			 0.09460
	26.25			  9.74892			  -0.17949			 0.16908
	26.50			  9.61563			  -0.37485			 0.06205
	26.75			  9.68595			  -0.26394			 0.17160
	27.00			  9.80936			  -0.28761			 0.06312
	27.25			  9.76614			  -0.39741			 0.02970
	27.50			  9.84262			  -0.52715			 0.18043
	27.75			  9.84724			  -0.36590			 0.20724
	28.00			  9.90224			  -0.29265			 0.16350
	28.25			  10.03536			  -0.14091			 0.49972
	28.50			  10.03155			  0.03767			 0.26179
	28.75			  10.00826			  0.11802			 0.35674
	29.00			  10.17001			  0.20451			 0.41395
	29.25			  10.23589			  0.26062			 0.26498
	29.50			  10.18768			  0.19967			 0.20415
	29.75			  10.15923			  0.22725			 0.15640
	30.00			  10.29723			  0.15791			 0.32164
	30.25			  10.34807			  0.12529			 0.19809
	30.50			  10.29334			  0.29846			 0.28421
	30.75			  10.27766			  0.14467			 0.17649
	31.00			  10.20825			  0.19594			 0.03988
	31.25			  10.33212			  0.15269			 0.12928
	31.50			  10.38295			  0.13871			 0.15088
	31.75			  10.20462			  0.02407			 0.02755
	32.00			  10.13195			  -0.17558			 0.18557
	32.25			  10.02747			  -0.21659			 0.03004
	32.50			  10.36003			  -0.05087			 0.05631
	32.75			  10.38658			  -0.09729			 -0.01234
	33.00			  10.28301			  -0.13438			 0.07574
	33.25			  10.48209			  -0.04975			 0.09097
	33.50			  10.52975			  -0.03148			 0.09753
	33.75			  10.53963			  0.12491			 0.14168
	34.00			  10.45970			  0.14933			 0.02058
	34.25			  10.52087			  0.14151			 0.05890
	34.50			  10.34716			  0.18960			 0.19349
	34.75			  10.20662			  0.04737			 -0.02407
	35.00			  10.18587			  -0.08070			 -0.09326
	35.25			  10.16267			  0.05016			 -0.25389
	35.50			  10.12497			  0.09043			 -0.26052
	35.75			  10.03200			  0.24832			 -0.13580
	36.00			  10.05692			  0.10087			 -0.16222
	36.25			  10.04106			  -0.09039			 -0.06289
	36.50			  10.09344			  -0.25536			 -0.00162
	36.75			  10.17572			  -0.28817			 -0.10533
	37.00			  10.12407			  -0.11854			 -0.00278
	37.25			  9.99757			  -0.10176			 -0.08790
	37.50			  10.01877			  -0.12786			 0.02481
	37.75			  10.07767			  -0.17670			 0.20358
	38.00			  9.89092			  -0.14352			 0.14004
	38.25			  9.94655			  -0.02682			 0.13464
	38.50			  9.93595			  0.00822			 0.17778
	38.75			  10.02457			  0.19761			 0.21657
	39.00			  9.92091			  0.07235			 0.09791
	39.25			  9.98053			  -0.02235			 -0.04860
	39.50			  9.86509			  0.05967			 -0.04659
	39.75			  10.03318			  -0.01825			 0.05675
	40.00			  10.06780			  -0.12525			 0.07873
	40.25			  10.14500			  -0.22405			 0.07858
	40.50			  10.14020			  -0.14631			 0.04449
	40.75			  10.16611			  -0.15973			 0.04751
	41.00			  10.20263			  -0.21994			 0.10648
	41.25			  10.06372			  -0.19422			 0.13319
	41.50			  10.05574			  -0.28146			 0.05527
	41.75			  10.16403			  -0.28705			 0.04196
	42.00			  10.09308			  -0.30141			 -0.02981
	42.25			  10.13703			  -0.08592			 0.10112
	42.50			  10.19565			  -0.06280			 0.20036
	42.75			  10.01442			  -0.01601			 0.25466
	43.00			  10.24603			  0.16853			 0.21796
	43.25			  10.15460			  0.07626			 0.28216
	43.50			  10.16983			  -0.28556			 0.02705
	43.75			  10.23761			  -0.28985			 0.07236
	44.00			  10.18387			  -0.33738			 0.07681
	44.25			  10.09716			  -0.12823			 0.14984
	44.50			  10.19312			  -0.20839			 0.22893
	44.75			  10.06209			  -0.48111			 0.20721
	45.00			  9.95888			  -0.53796			 0.06634
	45.25			  10.00029			  -0.31744			 0.05830
	45.50			  9.91393			  -0.25723			 0.00412
	45.75			  9.73832			  -0.25946			 -0.08187
	46.00			  9.73216			  -0.19310			 -0.20700
	46.25			  9.68522			  -0.17185			 -0.15043
	46.50			  9.55465			  -0.04621			 0.00510
	46.75			  9.57232			  -0.00222			 0.14142
	47.00			  9.57703			  -0.07566			 0.12178
	47.25			  9.52193			  0.04476			 -0.00244
	47.50			  9.46086			  -0.22386			 -0.00061
	47.75			  9.48442			  -0.26151			 -0.04942
	48.00			  9.45089			  -0.23467			 -0.14185
	48.25			  9.56162			  -0.37206			 0.03455
	48.50			  9.38737			  -0.32527			 0.11030
	48.75			  9.51550			  -0.19497			 0.12616
	49.00			  9.73488			  -0.41661			 0.17526
	49.25			  9.86998			  -0.40859			 0.19797
	49.50			  9.89717			  -0.39834			 0.16195
	49.75			  9.69591			  -0.44140			 0.06782
	50.00			  9.82015			  -0.34521			 0.05805
	50.25			  9.79351			  -0.40952			 0.11591
	50.50			  9.74657			  -0.20485			 0.05489
	50.75			  9.76052			  -0.17614			 -0.10313
	51.00			  9.71159			  -0.12432			 -0.01742
	51.25			  9.67888			  -0.13923			 0.02957
	51.50			  9.73560			  -0.24828			 0.01390
	51.75			  9.84425			  -0.54728			 -0.11590
	52.00			  9.85984			  -0.47402			 -0.08758
	52.25			  9.78064			  -0.29731			 -0.27360
	52.50			  10.08438			  -0.29525			 -0.22529
	52.75			  10.02394			  -0.36404			 -0.13119
	53.00			  10.16928			  -0.34745			 -0.18023
	53.25			  10.12697			  -0.41810			 -0.12766
	53.50			  10.01841			  -0.68262			 -0.12047
	53.75			  10.01841			  -0.62427			 -0.28250
	54.00			  10.00373			  -0.64067			 -0.30350
	54.25			  9.99240			  -0.67814			 -0.33128
	54.50			  10.09571			  -0.85132			 -0.42755
	54.75			  10.03753			  -0.66584			 -0.42610
	55.00			  9.94157			  -0.53983			 -0.26468
	55.25			  9.92843			  -0.46135			 -0.03615
	55.50			  9.99395			  -0.55530			 0.00214
	55.75			  10.04578			  -0.76650			 -0.00799
	56.00			  10.04768			  -0.79558			 -0.00282
	56.25			  10.04578			  -0.64291			 0.02762
	56.50			  10.07486			  -0.82615			 -0.11174
	56.75			  10.10984			  -0.77116			 -0.18278
	57.00			  10.22320			  -0.53479			 0.01677
	57.25			  10.19710			  -0.41679			 -0.04299
	57.50			  10.24141			  -0.34093			 -0.09054
	57.75			  10.23978			  -0.39573			 -0.25213
	58.00			  10.17572			  -0.45333			 -0.22889
	58.25			  9.97691			  -0.38287			 -0.21873
	58.50			  9.90850			  -0.25928			 -0.16818
	58.75			  9.91076			  -0.26711			 -0.23753
	59.00			  9.90523			  -0.26151			 -0.33948
	59.25			  9.91756			  0.01997			 -0.15317
	59.50			  10.00473			  -0.05945			 -0.11016
	59.75			  10.00790			  -0.35136			 -0.13939
	60.00			  10.04016			  -0.11816			 -0.13599
	60.25			  9.99612			  -0.09169			 -0.29315
	60.50			  9.87288			  -0.01937			 -0.18423
	60.75			  10.05719			  -0.02943			 -0.21195
	61.00			  10.04587			  -0.20130			 -0.16374
	61.25			  10.03572			  -0.17241			 -0.06894
	61.50			  10.14056			  -0.18154			 -0.12823
	61.75			  10.06462			  -0.12301			 -0.26376
	62.00			  10.05719			  -0.17129			 -0.26307
	62.25			  9.93668			  -0.27009			 -0.22491
	62.50			  9.94846			  -0.12954			 -0.19234
	62.75			  9.80674			  -0.09971			 -0.25966
	63.00			  9.93767			  -0.02850			 -0.26376
	63.25			  10.09099			  -0.13625			 -0.33525
	63.50			  10.06879			  -0.14669			 -0.35619
	63.75			  10.02484			  0.10497			 -0.23768
	64.00			  9.94148			  0.09043			 -0.05844
	64.25			  9.91285			  0.06862			 -0.06472
	64.50			  9.77357			  0.03973			 -0.14034
	64.75			  9.72255			  -0.08387			 -0.11360
	65.00			  9.63457			  -0.15191			 0.00305
	65.25			  9.65332			  -0.26599			 0.28812
	65.50			  9.81462			  -0.31800			 0.24429
	65.75			  9.88829			  -0.45053			 0.09680
	66.00			  9.81235			  -0.51317			 0.11093
	66.25			  9.96894			  -0.42444			 0.28484
	66.50			  9.97347			  -0.37168			 0.22877
	66.75			  9.94166			  -0.39927			 0.27330
	67.00			  9.97075			  -0.56350			 0.28418
	67.25			  9.99313			  -0.46209			 0.26977
	67.50			  9.93876			  -0.38063			 0.24186
	67.75			  10.06771			  -0.08908			 0.19686
	68.00			  10.11573			  -0.05441			 0.16227
	68.25			  10.05819			  -0.18900			 0.25880
	68.50			  9.94302			  -0.05479			 0.14641
	68.75			  10.13549			  -0.09654			 0.19027
	69.00			  10.19756			  -0.02365			 -0.02896
	69.25			  10.19266			  0.02779			 -0.17875
	69.50			  10.12950			  0.05445			 -0.11757
	69.75			  10.15660			  -0.01116			 -0.12173
	70.00			  10.05049			  -0.05143			 -0.09553
	70.25			  9.87877			  -0.15433			 0.00598
	70.50			  9.78227			  -0.20596			 0.10156
	70.75			  9.78272			  -0.22889			 -0.00357
	71.00			  9.92997			  -0.27997			 0.11844
	71.25			  9.90369			  -0.26301			 -0.21025
	71.50			  9.75427			  -0.26487			 -0.18887
	71.75			  9.87497			  -0.17521			 -0.27603
	72.00			  9.78218			  -0.32900			 -0.20754
	72.25			  9.86654			  -0.25797			 -0.36215
	72.50			  9.97129			  -0.37373			 -0.29038
	72.75			  10.02611			  -0.36572			 -0.39914
	73.00			  9.99558			  -0.17390			 -0.20303
	73.25			  9.81879			  -0.10101			 -0.10883
	73.50			  9.97011			  0.06620			 -0.25474
	73.75			  9.99721			  0.19631			 -0.18423
	74.00			  9.95625			  0.14020			 -0.16449
	74.25			  9.80828			  0.20749			 -0.17004
	74.50			  9.85802			  0.32754			 -0.15279
	74.75			  9.98352			  0.50128			 -0.24929
	75.00			  10.05620			  0.33202			 -0.01344
	75.25			  9.97763			  0.44424			 -0.03659
	75.50			  9.88566			  0.37881			 -0.07859
	75.75			  9.81978			  0.23788			 -0.01972
	76.00			  9.78082			  -0.05460			 0.00274
	76.25			  9.93514			  -0.04192			 -0.06160
	76.50			  10.03327			  -0.24175			 0.07621
	76.75			  9.80927			  -0.50758			 0.09333
	77.00			  9.93133			  -0.23542			 0.03641
	77.25			  9.90831			  -0.23411			 -0.13728
	77.50			  9.89218			  -0.33030			 0.04140
	77.75			  9.90877			  -0.23579			 -0.11262
	78.00			  9.90197			  -0.36684			 -0.07973
	78.25			  9.85657			  -0.28221			 -0.11101
	78.50			  9.74312			  -0.15340			 -0.26266
	78.75			  9.72808			  -0.27270			 -0.36508
	79.00			  9.82984			  -0.43655			 -0.27606
	79.25			  9.72672			  -0.28127			 -0.23910
	79.50			  9.80465			  -0.20708			 -0.26408
	79.75			  9.81045			  -0.28444			 -0.33793
	80.00			  9.77846			  -0.13736			 -0.21164
	80.25			  9.80447			  -0.03689			 -0.22031
	80.50			  9.66211			  -0.09002			 -0.11202
	80.75			  9.75635			  -0.08070			 -0.10868
	81.00			  9.93595			  0.06750			 -0.10918
	81.25			  9.89844			  0.13368			 -0.08654
	81.50			  9.83537			  0.07962			 -0.13983
	81.75			  9.85286			  0.03786			 -0.04286
	82.00			  9.81788			  -0.00129			 -0.02306
	82.25			  9.86636			  -0.11145			 0.20538
	82.50			  9.87678			  -0.14128			 0.13550
	82.75			  9.76569			  0.08167			 -0.08626
	83.00			  9.82051			  0.18177			 -0.23989
	83.25			  9.81108			  0.12920			 -0.14683
	83.50			  9.78807			  0.01959			 -0.31573
	83.75			  9.85032			  -0.09132			 -0.32806
	84.00			  9.97917			  -0.11276			 -0.21302
	84.25			  10.10739			  -0.12991			 -0.18363
	84.50			  10.11945			  -0.08442			 -0.07367
	84.75			  10.16720			  0.10441			 0.05013
	85.00			  9.98407			  0.06042			 -0.00956
	85.25			  9.87678			  0.09304			 -0.10199
	85.50			  9.93967			  0.00822			 -0.17610
	85.75			  10.06680			  0.23788			 -0.32532
	86.00			  10.04967			  0.18979			 -0.33595
	86.25			  9.85920			  0.12380			 -0.33434
	86.50			  9.81471			  0.15325			 -0.29665
	86.75			  9.62098			  0.08651			 -0.13517
	87.00			  9.68894			  0.10683			 -0.02574
	87.25			  9.70443			  0.09844			 -0.02029
	87.50			  9.74186			  0.19333			 -0.02609
	87.75			  9.56697			  0.07682			 -0.13655
	88.00			  9.42570			  0.17711			 -0.17635
	88.25			  9.53598			  0.22800			 -0.15131
	88.50			  9.51468			  0.31561			 -0.28171
	88.75			  9.51423			  0.40416			 -0.37656
	89.00			  9.55129			  0.33388			 -0.39220
	89.25			  9.53598			  0.21849			 -0.16944
	89.50			  9.49937			  0.35681			 -0.11038
	89.75			  9.47980			  0.30667			 -0.19619
	90.00			  9.49022			  0.19090			 -0.15216
	90.25			  9.64644			  0.10329			 -0.14021
	90.50			  9.75789			  -0.01657			 -0.11186
	90.75			  9.91040			  0.22241			 -0.03145
	91.00			  9.77411			  0.47779			 0.02475
	91.25			  9.72319			  0.34171			 0.00665
	91.50			  9.79650			  0.26323			 0.00816
	91.75			  9.84226			  0.05818			 0.09983
	92.00			  9.95118			  -0.02645			 0.08838
	92.25			  9.70117			  0.03973			 0.21509
	92.50			  9.57005			  0.00021			 0.23552
	92.75			  9.74847			  0.11354			 0.23098
	93.00			  9.84969			  0.23620			 0.23842
	93.25			  9.77194			  0.16126			 -0.05355
	93.50			  9.78698			  0.03506			 0.10257
	93.75			  9.86482			  0.15940			 0.06483
	94.00			  9.75563			  0.30350			 0.11613
	94.25			  10.01125			  0.39540			 0.09781
	94.50			  10.10694			  0.15754			 0.03682
	94.75			  10.16394			  0.09192			 0.15010
	95.00			  10.17780			  0.31021			 0.10875
	95.25			  10.24341			  0.03283			 0.03055
	95.50			  10.24576			  0.04420			 0.12947
	95.75			  10.12624			  -0.08032			 0.09128
	96.00			  10.05439			  -0.05889			 0.16851
	96.25			  10.10214			  0.12883			 0.00835
	96.50			  10.13993			  -0.03130			 -0.06800
	96.75			  10.18967			  0.12566			 -0.12053
	97.00			  10.39265			  0.05501			 -0.15358
	97.25			  10.34263			  0.12063			 -0.07588
	97.50			  10.21640			  -0.09468			 0.03241
	97.75			  10.37688			  -0.22908			 0.24315
	98.00			  10.38685			  -0.35192			 0.25113
	98.25			  10.41911			  -0.27028			 0.16526
	98.50			  10.53446			  -0.18341			 0.13862
	98.75			  10.47692			  0.11261			 0.10169
	99.00			  10.63088			  -0.12264			 0.09166
	99.25			  10.65045			  -0.21212			 -0.05119
	99.50			  10.54135			  -0.17017			 -0.14696
	99.75			  10.62788			  -0.16551			 -0.01474
	100.00			  10.59454			  -0.12711			 0.04944
	100.25			  10.46161			  -0.13792			 0.02957
	100.50			  10.47402			  -0.30513			 0.00059
	100.75			  10.49350			  -0.44010			 -0.29987
	101.00			  10.66993			  -0.40803			 -0.06349
	101.25			  10.59309			  -0.28202			 0.08034
	101.50			  10.50664			  -0.33421			 0.32376
	101.75			  10.57913			  -0.26151			 0.07993
	102.00			  10.56899			  -0.19869			 0.20106
	102.25			  10.51969			  -0.22852			 0.25927
	102.50			  10.38495			  -0.21696			 0.16057
	102.75			  10.54950			  -0.26729			 0.25880
	103.00			  10.60278			  -0.31501			 0.24615
	103.25			  10.53156			  -0.41344			 0.41805
	103.50			  10.42989			  -0.29525			 0.28547
	103.75			  10.38631			  -0.25835			 0.38273
	104.00			  10.36030			  -0.57152			 0.33123
	104.25			  10.53310			  -0.82913			 0.23574
	104.50			  10.61203			  -0.56164			 0.21783
	104.75			  10.66785			  -0.54542			 0.21925
	105.00			  10.75529			  -0.67628			 0.25731
	105.25			  10.65815			  -0.35658			 0.07262
	105.50			  10.54760			  -0.27065			 -0.19432
	105.75			  10.49749			  -0.20317			 -0.20580
	106.00			  10.61502			  -0.21622			 -0.17099
	106.25			  10.68941			  -0.18881			 0.00652
	106.50			  10.59744			  -0.29283			 -0.21378
	106.75			  10.57071			  -0.16924			 -0.18073
	107.00			  10.41739			  -0.05068			 -0.12255
	107.25			  10.46215			  0.03767			 -0.19060
	107.50			  10.48644			  -0.08088			 -0.33800
	107.75			  10.73245			  -0.06690			 -0.17285
	108.00			  10.59699			  -0.07697			 -0.17622
	108.25			  10.44983			  -0.12096			 -0.11826
	108.50			  10.34453			  -0.05479			 -0.18572
	108.75			  10.45055			  -0.05068			 -0.11855
	109.00			  10.41612			  0.04569			 -0.06762
	109.25			  10.27494			  -0.03130			 -0.03164
	109.50			  10.23172			  -0.14818			 -0.12325
	109.75			  10.22021			  -0.23747			 -0.00982
	110.00			  10.17853			  -0.22908			 -0.09988
	110.25			  10.13385			  -0.17278			 0.00895
	110.50			  10.21169			  -0.08070			 0.12115
	110.75			  10.20870			  0.02630			 0.00910
	111.00			  10.27331			  0.05594			 -0.08279
	111.25			  10.29134			  -0.08703			 -0.06743
	111.50			  10.13213			  -0.09356			 -0.07481
	111.75			  10.21631			  -0.20783			 -0.08449
	112.00			  10.34671			  -0.32433			 -0.27720
	112.25			  10.53881			  -0.36665			 -0.06450
	112.50			  10.52295			  -0.21007			 -0.09345
	112.75			  10.67836			  -0.13923			 -0.48488
	113.00			  10.71107			  -0.31837			 -0.60468
	113.25			  10.57098			  -0.26133			 -0.17802
	113.50			  10.56310			  -0.06783			 -0.04504
	113.75			  10.63287			  -0.05311			 -0.12069
	114.00			  10.63332			  -0.01564			 0.04704
	114.25			  10.71071			  -0.06578			 -0.01921
	114.50			  10.56436			  -0.09896			 0.00176
	114.75			  10.40416			  0.02519			 -0.07143
	115.00			  10.26778			  -0.00017			 -0.13189
	115.25			  10.34834			  -0.07641			 -0.13945
	115.50			  10.26670			  -0.07492			 -0.21798
	115.75			  10.25437			  0.07496			 -0.10956
	116.00			  10.29370			  -0.03913			 -0.04551
	116.25			  10.43007			  0.02985			 -0.11479
	116.50			  10.24685			  0.28672			 0.00346
	116.75			  10.20191			  0.18997			 0.07489
	117.00			  10.18822			  0.29828			 -0.06812
	117.25			  10.26244			  0.14505			 -0.02735
	117.50			  10.46795			  0.10646			 -0.11558
	117.75			  10.54117			  0.07924			 -0.17831
	118.00			  10.43932			  0.34469			 -0.28104
	118.25			  10.43089			  0.26621			 -0.00679
	118.50			  10.46623			  0.14300			 -0.16326
	118.75			  10.39709			  -0.07846			 -0.24853
	119.00			  10.35214			  0.02537			 -0.09127
	119.25			  10.27231			  0.18121			 -0.16683
	119.50			  10.09924			  0.31356			 -0.17241
	119.75			  9.91719			  0.28187			 -0.15062
	120.00			  9.84026			  0.23173			 -0.03407
	120.25			  9.87107			  0.19724			 0.09907
	120.50			  9.77430			  0.01717			 0.12616
	120.75			  9.85250			  0.04252			 0.14817
	121.00			  9.94184			  -0.03260			 0.15536
	121.25			  9.97800			  0.03283			 0.02118
	121.50			  10.08728			  0.03767			 -0.00231
	121.75			  10.09860			  -0.02887			 0.00904
	122.00			  10.00899			  -0.09822			 -0.10751
	122.25			  10.11193			  -0.09654			 -0.24163
	122.50			  10.17300			  -0.05423			 0.09570
	122.75			  10.31472			  -0.09393			 0.11399
	123.00			  10.26053			  -0.02552			 0.06473
	123.25			  10.37208			  0.00151			 0.22013
	123.50			  10.26271			  -0.14967			 0.21805
	123.75			  10.25347			  -0.37746			 -0.02568
	124.00			  10.39537			  -0.26301			 0.13468
	124.25			  10.48064			  -0.24026			 0.11080
	124.50			  10.45400			  -0.09654			 0.08356
	124.75			  10.40434			  0.05203			 0.17018
	125.00			  10.51661			  0.25652			 0.17353
	125.25			  10.45653			  0.23266			 0.20077
	125.50			  10.43370			  0.15642			 0.42650
	125.75			  10.38168			  0.18997			 0.39515
	126.00			  10.44330			  0.21961			 0.24870
	126.25			  10.42119			  0.02164			 0.15987
	126.50			  10.45608			  0.14356			 0.21380
	126.75			  10.59418			  0.14412			 0.08394
	127.00			  10.60641			  0.18718			 0.06994
	127.25			  10.66259			  -0.03204			 0.08677
	127.50			  10.82316			  -0.07082			 0.22247
	127.75			  10.94794			  -0.12842			 -0.09663
	128.00			  10.84201			  -0.21845			 -0.08181
	128.25			  10.82869			  -0.28593			 -0.10234
	128.50			  10.76906			  -0.09430			 -0.28751
	128.75			  10.74115			  -0.13009			 0.06596
	129.00			  10.61185			  -0.22013			 0.02118
	129.25			  10.50057			  -0.23560			 -0.03173
	129.50			  10.52467			  -0.18751			 0.11014
	129.75			  10.61710			  -0.24008			 0.28434
	130.00			  10.52730			  -0.30961			 0.33019
	130.25			  10.53238			  -0.44998			 0.50622
	130.50			  10.30684			  -0.41735			 0.36671
	130.75			  10.03590			  -0.29544			 0.28828
	131.00			  10.05429			  -0.14650			 0.29790
	131.25			  10.12026			  -0.06765			 0.17517
	131.50			  9.97899			  -0.14594			 0.24858
	131.75			  10.01424			  -0.29842			 0.21424
	132.00			  10.01560			  -0.13438			 0.06823
	132.25			  10.09181			  -0.24064			 0.05496
	132.50			  9.97111			  -0.26207			 0.10052
	132.75			  10.00790			  -0.08349			 0.17677
	133.00			  10.11917			  -0.26636			 0.08255
	133.25			  10.02149			  -0.24958			 0.06659
	133.50			  10.09752			  -0.24399			 0.13054
	133.75			  10.22066			  -0.29339			 0.33035
	134.00			  10.15306			  -0.17688			 0.35747
	134.25			  10.10250			  -0.04584			 0.18084
	134.50			  10.15678			  -0.09225			 0.19469
	134.75			  10.17454			  -0.10828			 0.14912
	135.00			  10.23580			  -0.23169			 0.21717
	135.25			  10.10486			  -0.17614			 0.10995
	135.50			  10.22075			  -0.12376			 0.22061
	135.75			  10.22075			  -0.24306			 0.03969
	136.00			  10.13367			  -0.44587			 0.00816
	136.25			  9.94692			  -0.43208			 0.04985
	136.50			  10.01750			  -0.56164			 -0.04863
	136.75			  9.95761			  -0.43133			 -0.05939
	137.00			  9.91466			  -0.46657			 -0.02804
	137.25			  9.85857			  -0.54337			 0.03285
	137.50			  9.98425			  -0.49826			 -0.02681
	137.75			  10.00926			  -0.41064			 0.15666
	138.00			  10.04396			  -0.49527			 0.15432
	138.25			  10.15814			  -0.46433			 0.12629
	138.50			  10.29216			  -0.41064			 0.06953
	138.75			  10.33339			  -0.51037			 0.13080
	139.00			  10.31653			  -0.64459			 -0.04860
	139.25			  10.42536			  -0.57170			 -0.13047
	139.50			  10.53510			  -0.48894			 0.09261
	139.75			  10.31980			  -0.42500			 -0.09449
	140.00			  10.48580			  -0.41679			 -0.13324
	140.25			  10.49414			  -0.35081			 -0.15973
	140.50			  10.43089			  -0.42928			 -0.19581
	140.75			  10.36157			  -0.53367			 -0.40132
	141.00			  10.19783			  -0.62334			 -0.47861
	141.25			  10.09063			  -0.77564			 -0.37101
	141.50			  10.16493			  -0.79167			 -0.29243
	141.75			  10.10214			  -0.94527			 -0.27597
	142.00			  10.07858			  -0.96111			 -0.14068
	142.25			  10.12198			  -0.93092			 -0.20672
	142.50			  10.23706			  -0.76277			 -0.29700
	142.75			  10.19538			  -0.79670			 -0.26919
	143.00			  10.06508			  -0.90184			 -0.25850
	143.25			  9.98325			  -0.83044			 -0.33620
	143.50			  9.88820			  -0.72530			 -0.26976
	143.75			  9.88303			  -0.76967			 -0.28164
	144.00			  9.89581			  -0.86381			 -0.16698
	144.25			  9.81598			  -0.82541			 -0.19051
	144.50			  9.68776			  -0.64254			 -0.36136
	144.75			  9.83120			  -0.75625			 -0.31911
	145.00			  9.94103			  -0.57338			 -0.25610
	145.25			  9.93396			  -0.58065			 -0.25046
	145.50			  9.97020			  -0.67665			 0.01992
	145.75			  9.93360			  -0.58550			 0.00967
	146.00			  9.94447			  -0.54952			 -0.06815
	146.25			  9.80175			  -0.60432			 -0.03760
	146.50			  10.05964			  -0.58438			 0.01387
	146.75			  10.00092			  -0.44233			 0.21446
	147.00			  9.93912			  -0.30756			 0.27847
	147.25			  9.91837			  -0.43003			 0.40212
	147.50			  9.97039			  -0.46340			 0.56276
	147.75			  9.99313			  -0.50851			 0.63308
	148.00			  9.94683			  -0.29693			 0.58713
	148.25			  9.96812			  -0.48222			 0.45945
	148.50			  10.03146			  -0.58475			 0.50789
	148.75			  10.11510			  -0.54355			 0.42691
	149.00			  10.08528			  -0.44438			 0.31840
	149.25			  10.10712			  -0.35919			 0.20654
	149.50			  10.24848			  -0.52622			 0.01942
	149.75			  10.32106			  -0.36068			 0.05332
	150.00			  10.27956			  -0.28221			 0.05448
	150.25			  10.17218			  -0.09990			 0.02758
	150.50			  10.10540			  -0.29936			 -0.08030
	150.75			  10.16475			  -0.46694			 -0.25001
	151.00			  10.24694			  -0.58195			 -0.06406
	151.25			  10.14437			  -0.65484			 -0.06970
	151.50			  10.23879			  -0.74488			 -0.21236
	151.75			  10.28418			  -0.60283			 -0.25131
	152.00			  10.31943			  -0.55399			 -0.35622
	152.25			  9.99376			  -0.47123			 -0.37038
	152.50			  10.07450			  -0.39088			 -0.32154
	152.75			  10.01723			  -0.33906			 -0.41664
	153.00			  9.94411			  -0.37728			 -0.24702
	153.25			  9.89717			  -0.34708			 -0.33257
	153.50			  9.93650			  -0.29134			 -0.44534
	153.75			  9.92163			  -0.11444			 -0.43263
	154.00			  9.92598			  -0.12972			 -0.49627
	154.25			  9.86690			  -0.20559			 -0.42377
	154.50			  9.72464			  -0.20876			 -0.38164
	154.75			  9.60276			  -0.29302			 -0.44121
	155.00			  9.66402			  -0.55064			 -0.55051
	155.25			  9.81679			  -0.54355			 -0.31233
	155.50			  9.97609			  -0.68373			 -0.29013
	155.75			  10.10368			  -0.77601			 -0.06885
	156.00			  10.17690			  -0.73444			 0.01992
	156.25			  10.14310			  -0.55492			 0.14199
	156.50			  10.24459			  -0.46004			 0.29077
	156.75			  10.12062			  -0.25685			 0.22408
	157.00			  10.05076			  -0.11742			 0.28491
	157.25			  10.06979			  -0.06616			 0.43053
	157.50			  9.88765			  -0.07473			 0.42104
	157.75			  9.74086			  -0.06933			 0.20311
	158.00			  9.85349			  -0.13643			 0.13657
	158.25			  9.81027			  -0.26226			 0.16687
	158.50			  9.73687			  -0.09169			 0.17438
	158.75			  9.83655			  -0.15340			 0.30695
	159.00			  9.64191			  -0.04752			 0.16930
	159.25			  9.68894			  -0.12450			 0.06684
	159.50			  9.83908			  -0.13997			 0.21140
	159.75			  9.85023			  -0.16085			 0.18885
	160.00			  10.13938			  -0.26058			 0.26778
	160.25			  10.15352			  -0.22516			 0.35851
	160.50			  10.32587			  -0.25331			 0.38941
	160.75			  10.29805			  -0.05851			 0.41335
	161.00			  10.29252			  -0.02440			 0.24360
	161.25			  10.14509			  -0.10978			 0.29434
	161.50			  10.09706			  -0.26785			 0.02976
	161.75			  10.16657			  -0.43115			 -0.07500
	162.00			  9.96477			  -0.50329			 0.07577
	162.25			  9.92109			  -0.37746			 -0.09739
	162.50			  10.18976			  -0.40766			 -0.10924
	162.75			  10.28971			  -0.46974			 -0.06633
	163.00			  10.32288			  -0.42798			 -0.04759
	163.25			  10.41920			  -0.48707			 -0.03410
	163.50			  10.39292			  -0.63713			 -0.18130
	163.75			  10.30194			  -0.58587			 -0.13315
	164.00			  10.37978			  -0.81795			 -0.03082
	164.25			  10.30593			  -0.80360			 0.10011
	164.50			  10.34571			  -0.67311			 -0.15040
	164.75			  10.29741			  -0.58606			 -0.06976
	165.00			  10.25174			  -0.55623			 -0.09307
	165.25			  10.32759			  -0.50385			 0.03465