--------------TurbSim v2.00.* User Time Series Input File-----------------------
     Time series input from low-res turbsim run
--------------------------------------------------------------------------------
          3 nComp - Number of velocity components in the file
          1 nPoints - Number of time series points contained in this file (-)
          1 RefPtID - Index of the reference point (1-nPoints)
     Pointyi Pointzi ! nPoints listed in order of increasing height
       (m)     (m)
       -2.85422   94.00000
--------Time Series-------------------------------------------------------------
Elapsed Time         Point01u             Point01v           Point01w
         (s)            (m/s)                (m/s)              (m/s)
	0.00			  9.85469			  -0.43989			 0.23110
	0.25			  9.90575			  -0.21974			 0.22637
	0.50			  9.81653			  -0.27209			 0.27051
	0.75			  9.86759			  -0.14549			 0.10209
	1.00			  9.90906			  -0.15206			 0.09965
	1.25			  9.97184			  -0.30971			 0.21442
	1.50			  9.93570			  -0.22810			 0.20675
	1.75			  9.99167			  -0.02526			 0.05719
	2.00			  9.86215			  -0.02506			 -0.13158
	2.25			  9.82516			  0.19628			 -0.15376
	2.50			  9.67124			  0.28745			 -0.18671
	2.75			  9.80342			  0.14990			 0.10816
	3.00			  9.75374			  0.22654			 0.07846
	3.25			  9.71046			  0.29322			 0.01653
	3.50			  9.85330			  0.36110			 -0.05120
	3.75			  10.08473			  0.41166			 -0.09488
	4.00			  10.19761			  0.22614			 0.00282
	4.25			  10.16500			  0.12443			 -0.00669
	4.50			  10.24889			  -0.01591			 -0.03715
	4.75			  10.20859			  -0.16898			 0.01214
	5.00			  10.15530			  -0.16440			 -0.13833
	5.25			  10.04848			  -0.13872			 -0.00237
	5.50			  9.95564			  -0.36285			 -0.03047
	5.75			  9.99209			  -0.40426			 -0.01413
	6.00			  9.66186			  -0.15345			 0.10667
	6.25			  9.82463			  -0.18729			 -0.01062
	6.50			  9.69106			  -0.18789			 0.11271
	6.75			  9.66335			  -0.20102			 0.20323
	7.00			  9.54279			  -0.02825			 0.09350
	7.25			  9.62583			  -0.00118			 0.01351
	7.50			  9.72240			  -0.01869			 0.06857
	7.75			  9.58095			  0.02570			 0.04860
	8.00			  9.70108			  0.08840			 0.08117
	8.25			  9.86642			  0.32268			 0.25275
	8.50			  9.83145			  0.04142			 0.27837
	8.75			  9.81035			  -0.16898			 0.43801
	9.00			  9.90383			  -0.01173			 0.25157
	9.25			  9.99636			  0.14612			 0.19953
	9.50			  9.92888			  0.22873			 0.08483
	9.75			  10.17406			  0.10034			 0.14359
	10.00			  10.19420			  -0.23068			 0.08006
	10.25			  10.36284			  -0.03103			 0.25478
	10.50			  10.31040			  0.15727			 0.27845
	10.75			  10.47541			  0.08143			 0.19785
	11.00			  10.36721			  0.52074			 -0.05437
	11.25			  10.24516			  0.60135			 -0.08259
	11.50			  10.42403			  0.58722			 -0.00775
	11.75			  10.56388			  0.31810			 -0.10424
	12.00			  10.67581			  0.33263			 -0.14711
	12.25			  10.57913			  0.39016			 0.03638
	12.50			  10.71568			  0.26854			 0.00450
	12.75			  10.77910			  0.28625			 0.06708
	13.00			  10.60780			  0.28068			 0.04921
	13.25			  10.61526			  0.14413			 0.12851
	13.50			  10.50909			  0.13139			 0.00946
	13.75			  10.48649			  0.00579			 -0.00810
	14.00			  10.67240			  0.06292			 -0.14219
	14.25			  10.81908			  0.15468			 -0.20546
	14.50			  10.71003			  0.13199			 -0.17743
	14.75			  10.67869			  -0.12757			 -0.09553
	15.00			  10.64447			  -0.06806			 -0.04395
	15.25			  10.66323			  -0.19107			 0.13607
	15.50			  10.77154			  -0.16599			 0.05826
	15.75			  10.77900			  0.14951			 0.09384
	16.00			  11.03515			  0.07546			 0.08529
	16.25			  11.04624			  -0.02984			 0.14275
	16.50			  10.98335			  0.15488			 -0.00344
	16.75			  10.89604			  0.23490			 0.16849
	17.00			  10.78848			  0.07148			 0.33935
	17.25			  10.77345			  -0.01411			 0.29139
	17.50			  10.84818			  0.04560			 0.05074
	17.75			  10.87643			  0.17399			 0.08254
	18.00			  10.86385			  0.19370			 0.04356
	18.25			  10.82697			  0.13179			 0.15596
	18.50			  10.64543			  -0.15584			 0.05463
	18.75			  10.72431			  -0.13753			 -0.07110
	19.00			  10.76098			  -0.06209			 0.03650
	19.25			  10.68231			  -0.10329			 0.00160
	19.50			  10.61878			  -0.11484			 -0.00711
	19.75			  10.40655			  -0.05691			 -0.04238
	20.00			  10.55120			  0.10671			 -0.05865
	20.25			  10.60951			  0.13318			 0.00721
	20.50			  10.46422			  0.14115			 -0.16055
	20.75			  10.47189			  0.02530			 -0.10962
	21.00			  10.48426			  -0.07164			 -0.30434
	21.25			  10.39589			  0.12622			 -0.32332
	21.50			  10.36689			  0.16105			 -0.23772
	21.75			  10.48724			  0.00081			 -0.10076
	22.00			  10.54662			  -0.01730			 0.10427
	22.25			  10.46411			  -0.24820			 -0.08652
	22.50			  10.43885			  -0.07463			 -0.08771
	22.75			  10.44801			  -0.12320			 -0.21676
	23.00			  10.48010			  -0.17574			 -0.13219
	23.25			  10.49566			  -0.34394			 0.04490
	23.50			  10.58233			  -0.53006			 0.02264
	23.75			  10.59586			  -0.56350			 -0.04658
	24.00			  10.49545			  -0.52647			 -0.12142
	24.25			  10.49961			  -0.57066			 -0.07125
	24.50			  10.26328			  -0.46895			 -0.21989
	24.75			  10.36710			  -0.61844			 -0.02940
	25.00			  10.41998			  -0.86128			 0.04135
	25.25			  10.55109			  -0.64690			 -0.01512
	25.50			  10.90180			  -0.80853			 0.02542
	25.75			  10.94231			  -0.71139			 -0.00386
	26.00			  10.83464			  -0.55036			 0.17032
	26.25			  10.73028			  -0.49363			 0.26623
	26.50			  10.44513			  -0.59793			 0.12630
	26.75			  10.74254			  -0.64471			 -0.15166
	27.00			  10.97631			  -0.64033			 0.03130
	27.25			  10.86993			  -0.55195			 0.13386
	27.50			  10.54448			  -0.37559			 -0.07850
	27.75			  10.45153			  -0.48945			 -0.32424
	28.00			  10.32297			  -0.28463			 -0.16388
	28.25			  10.25017			  -0.18809			 -0.14826
	28.50			  10.11383			  0.09118			 -0.21867
	28.75			  10.02898			  -0.10966			 -0.21080
	29.00			  10.19516			  -0.02188			 -0.29667
	29.25			  10.29441			  0.10392			 -0.25986
	29.50			  10.26797			  0.02351			 -0.31717
	29.75			  10.22661			  -0.14529			 -0.39754
	30.00			  10.44908			  -0.03820			 -0.32611
	30.25			  10.49492			  0.03664			 0.13905
	30.50			  10.36135			  -0.04178			 -0.04445
	30.75			  10.10072			  -0.16002			 0.15173
	31.00			  10.15657			  -0.04039			 0.07418
	31.25			  10.25315			  0.09417			 -0.05162
	31.50			  10.11426			  0.07924			 -0.16311
	31.75			  10.02706			  0.10034			 -0.19106
	32.00			  9.98058			  0.25600			 -0.02830
	32.25			  9.99657			  0.24027			 -0.11760
	32.50			  10.15935			  0.09815			 -0.24849
	32.75			  10.18610			  0.20564			 -0.03918
	33.00			  10.13227			  0.37065			 -0.18717
	33.25			  10.34014			  0.26695			 -0.43977
	33.50			  10.36508			  0.31552			 0.02336
	33.75			  10.43799			  0.27770			 0.03016
	34.00			  10.54320			  0.06610			 0.06666
	34.25			  10.40207			  0.01415			 0.13119
	34.50			  10.51826			  0.03286			 0.04677
	34.75			  10.63562			  0.18096			 0.07216
	35.00			  10.66153			  0.26018			 0.09514
	35.25			  10.69628			  0.35533			 0.03734
	35.50			  10.85799			  0.33602			 0.02871
	35.75			  10.66664			  0.30278			 0.01443
	36.00			  10.46038			  0.44868			 0.00393
	36.25			  10.66163			  0.50919			 0.06139
	36.50			  10.69212			  0.45525			 0.02019
	36.75			  10.89487			  0.60056			 -0.00065
	37.00			  10.92418			  0.54522			 -0.00745
	37.25			  10.74830			  0.54084			 -0.21660
	37.50			  10.68167			  0.41643			 -0.18167
	37.75			  10.40591			  0.37603			 -0.38830
	38.00			  10.21648			  0.35015			 -0.28052
	38.25			  10.31423			  0.43176			 -0.10218
	38.50			  10.30901			  0.58025			 -0.08603
	38.75			  10.01182			  0.73054			 -0.14150
	39.00			  10.23951			  0.81235			 -0.07194
	39.25			  10.07801			  0.59299			 -0.18293
	39.50			  9.89488			  0.48252			 -0.03593
	39.75			  9.82804			  0.58563			 -0.01741
	40.00			  9.89147			  0.44370			 -0.18064
	40.25			  9.92505			  0.43057			 -0.30213
	40.50			  9.90810			  0.48949			 -0.22474
	40.75			  9.85608			  0.40449			 -0.10584
	41.00			  10.04721			  0.12980			 0.06677
	41.25			  10.19197			  0.02629			 0.13474
	41.50			  10.32159			  0.23390			 -0.21741
	41.75			  10.19388			  0.41942			 -0.36902
	42.00			  10.18855			  0.43097			 -0.44691
	42.25			  10.02429			  0.35115			 -0.44928
	42.50			  10.05637			  0.46082			 -0.27754
	42.75			  10.28332			  0.28625			 -0.16869
	43.00			  10.34792			  0.30138			 -0.26368
	43.25			  10.42531			  0.42161			 -0.40182
	43.50			  10.46336			  0.38598			 -0.30679
	43.75			  10.22863			  0.22316			 -0.27781
	44.00			  10.11639			  -0.05393			 -0.12814
	44.25			  10.06735			  -0.07642			 -0.22096
	44.50			  10.15039			  -0.12857			 -0.13933
	44.75			  10.05328			  -0.15544			 -0.04040
	45.00			  10.20113			  -0.07343			 0.00332
	45.25			  10.35804			  -0.11304			 -0.07178
	45.50			  10.35367			  0.24047			 -0.06243
	45.75			  10.02386			  0.48232			 -0.02895
	46.00			  10.03719			  0.71024			 0.11385
	46.25			  10.19655			  0.54442			 0.24619
	46.50			  10.25187			  0.16165			 0.19052
	46.75			  10.01555			  0.19529			 0.30288
	47.00			  10.12300			  0.23470			 0.32881
	47.25			  9.90426			  -0.02247			 0.20713
	47.50			  9.76739			  -0.16460			 -0.03166
	47.75			  9.78530			  -0.07164			 -0.00588
	48.00			  9.83209			  -0.03064			 0.14310
	48.25			  10.01160			  0.12343			 0.06021
	48.50			  10.17971			  0.12124			 -0.14627
	48.75			  10.25539			  -0.03263			 -0.24429
	49.00			  10.19847			  -0.08418			 -0.24108
	49.25			  10.09464			  0.13239			 -0.09286
	49.50			  9.93837			  0.17459			 -0.06010
	49.75			  9.80374			  0.08680			 -0.07488
	50.00			  9.80129			  0.35572			 -0.01440
	50.25			  9.66974			  0.58025			 -0.42160
	50.50			  9.97824			  0.51954			 -0.47150
	50.75			  10.19953			  0.33303			 -0.31675
	51.00			  10.24462			  0.29481			 -0.39899
	51.25			  10.26232			  0.60334			 -0.24684
	51.50			  10.17427			  0.73173			 0.04150
	51.75			  10.19548			  0.66804			 0.08567
	52.00			  10.26967			  0.42081			 0.13943
	52.25			  10.54928			  0.78806			 0.11889
	52.50			  10.61910			  0.73273			 0.24012
	52.75			  10.70310			  0.87007			 0.04409
	53.00			  10.55749			  0.89754			 0.19277
	53.25			  10.58563			  0.95328			 0.22595
	53.50			  10.35687			  1.07450			 0.32476
	53.75			  10.33481			  0.98533			 0.30395
	54.00			  10.43405			  0.67540			 0.46489
	54.25			  10.51133			  0.47774			 0.35905
	54.50			  10.55237			  0.44072			 0.36810
	54.75			  10.54342			  0.29063			 0.47462
	55.00			  10.50675			  0.19170			 0.40532
	55.25			  10.61782			  0.34975			 0.30117
	55.50			  10.45334			  0.36189			 0.59921
	55.75			  10.26797			  0.45386			 0.36527
	56.00			  10.19229			  0.32109			 0.11232
	56.25			  10.04028			  0.16543			 0.05841
	56.50			  10.02375			  0.21957			 0.08690
	56.75			  10.16158			  0.39275			 0.13718
	57.00			  10.21638			  0.21539			 0.06208
	57.25			  10.24239			  0.08422			 -0.08828
	57.50			  10.09134			  0.12064			 -0.06197
	57.75			  9.97365			  0.29163			 0.10816
	58.00			  9.89040			  0.43495			 0.09816
	58.25			  9.82612			  0.40608			 0.03844
	58.50			  9.97557			  0.49884			 0.11740
	58.75			  9.94221			  0.46779			 0.00534
	59.00			  9.83987			  0.17399			 0.37459
	59.25			  9.87697			  0.31870			 0.34137
	59.50			  9.80118			  0.27650			 0.32988
	59.75			  9.93080			  0.12781			 0.34355
	60.00			  9.91087			  0.17041			 0.03275
	60.25			  9.70375			  0.43097			 0.08667
	60.50			  9.67305			  0.55955			 0.07044
	60.75			  9.34846			  0.45684			 0.14482
	61.00			  9.48107			  0.39713			 0.16169
	61.25			  9.70769			  0.31651			 0.17078
	61.50			  9.68509			  0.44948			 0.35508
	61.75			  9.67230			  0.34060			 0.25000
	62.00			  9.67145			  0.35274			 0.10671
	62.25			  9.53735			  0.31751			 -0.09611
	62.50			  9.35198			  0.57309			 0.17383
	62.75			  9.36381			  0.51795			 0.14634
	63.00			  9.53511			  0.54622			 0.02222
	63.25			  9.42905			  0.66505			 0.03684
	63.50			  9.62519			  0.55338			 0.06666
	63.75			  9.73967			  0.70805			 0.00198
	64.00			  9.74116			  0.78150			 0.00698
	64.25			  9.76227			  0.58045			 -0.17228
	64.50			  9.79638			  0.69172			 -0.02471
	64.75			  9.96800			  0.72576			 -0.21809
	65.00			  9.97397			  0.74507			 -0.11439
	65.25			  10.06767			  0.92362			 0.04673
	65.50			  10.11863			  1.03748			 0.02355
	65.75			  9.92846			  0.99787			 0.00332
	66.00			  9.94317			  1.12725			 -0.07976
	66.25			  10.01363			  1.14098			 -0.25616
	66.50			  9.99018			  1.08624			 -0.19492
	66.75			  9.89104			  1.11013			 0.04677
	67.00			  9.93325			  0.96343			 -0.19335
	67.25			  10.13003			  0.81932			 -0.28266
	67.50			  10.18834			  0.86589			 -0.24459
	67.75			  10.41785			  0.87744			 -0.14673
	68.00			  10.38992			  0.73910			 -0.39686
	68.25			  10.25059			  0.40728			 -0.30373
	68.50			  10.31487			  0.16025			 -0.30858
	68.75			  10.25550			  -0.06149			 -0.22974
	69.00			  10.17715			  0.29262			 -0.33508
	69.25			  9.98463			  0.20862			 -0.27410
	69.50			  9.93507			  0.36189			 -0.11122
	69.75			  9.89498			  0.33502			 0.02844
	70.00			  9.85000			  0.40051			 -0.05731
	70.25			  9.59960			  0.45047			 -0.10367
	70.50			  9.75715			  0.51098			 -0.02730
	70.75			  9.69106			  0.58881			 -0.28266
	71.00			  9.69511			  0.83086			 -0.16903
	71.25			  9.84606			  0.63539			 -0.07537
	71.50			  9.73221			  0.73233			 -0.07751
	71.75			  9.81813			  0.56493			 -0.15025
	72.00			  9.87772			  0.57607			 -0.20477
	72.25			  9.83678			  0.59538			 -0.06388
	72.50			  9.93912			  0.56134			 -0.11527
	72.75			  10.13600			  0.39593			 -0.23967
	73.00			  10.15700			  0.41862			 -0.17785
	73.25			  10.08537			  0.77115			 -0.16128
	73.50			  10.35431			  0.41385			 -0.27204
	73.75			  10.13003			  0.19091			 -0.27704
	74.00			  10.09901			  0.14373			 -0.37822
	74.25			  9.99742			  0.15249			 -0.43744
	74.50			  9.97429			  0.01057			 -0.47333
	74.75			  9.69170			  -0.13096			 -0.34283
	75.00			  9.62071			  -0.12160			 -0.29907
	75.25			  9.46668			  -0.16818			 -0.38429
	75.50			  9.78540			  -0.20142			 -0.51231
	75.75			  9.68659			  -0.15584			 -0.32427
	76.00			  9.80086			  -0.01829			 -0.39808
	76.25			  9.97440			  0.13438			 -0.25146
	76.50			  9.98037			  0.19788			 -0.06373
	76.75			  9.95660			  0.04242			 0.11782
	77.00			  9.79915			  0.12582			 0.02592
	77.25			  9.73978			  0.24007			 -0.05850
	77.50			  9.98229			  0.08024			 -0.06090
	77.75			  10.04006			  0.31273			 0.27226
	78.00			  9.96481			  0.39772			 0.34042
	78.25			  9.98708			  0.34279			 0.25306
	78.50			  10.08078			  0.50800			 0.23427
	78.75			  10.13472			  0.58264			 0.08365
	79.00			  9.95660			  0.75283			 0.14608
	79.25			  9.84723			  0.56951			 -0.03066
	79.50			  9.84542			  0.63002			 0.26047
	79.75			  9.87004			  0.73273			 0.22721
	80.00			  10.08174			  0.67879			 -0.03139
	80.25			  9.94679			  0.57966			 -0.11802
	80.50			  10.06234			  0.55597			 0.11087
	80.75			  9.92835			  0.19370			 0.03967
	81.00			  10.00691			  0.02072			 0.26951
	81.25			  9.98506			  -0.11503			 0.20400
	81.50			  9.85469			  -0.42376			 0.10694
	81.75			  9.91961			  -0.27368			 0.09136
	82.00			  10.10050			  -0.04795			 0.08579
	82.25			  10.19580			  0.12622			 0.17555
	82.50			  10.27863			  0.21261			 0.16551
	82.75			  10.27788			  0.34000			 0.13332
	83.00			  10.07247			  0.20643			 0.12191
	83.25			  10.11596			  0.00898			 0.05879
	83.50			  10.26573			  -0.07920			 0.01019
	83.75			  10.16883			  0.02112			 0.06166
	84.00			  10.10679			  0.08840			 0.03191
	84.25			  10.23631			  -0.02685			 0.20201
	84.50			  10.15156			  -0.01571			 0.26951
	84.75			  9.94519			  0.01435			 -0.02658
	85.00			  9.82527			  0.33761			 -0.15311
	85.25			  9.84137			  0.30656			 -0.23974
	85.50			  9.84499			  0.34259			 -0.17159
	85.75			  9.72741			  0.29402			 -0.14078
	86.00			  9.76067			  0.18474			 0.30204
	86.25			  9.84499			  0.10910			 0.53464
	86.50			  9.69554			  -0.10886			 0.62597
	86.75			  9.63872			  -0.10667			 0.68817
	87.00			  9.59907			  -0.16480			 0.50704
	87.25			  9.80555			  0.01415			 0.42964
	87.50			  9.59523			  -0.00595			 0.30934
	87.75			  9.60014			  0.02112			 -0.03093
	88.00			  9.68904			  0.30775			 -0.00027
	88.25			  9.75065			  -0.12678			 0.16730
	88.50			  10.11223			  0.05496			 0.19040
	88.75			  10.21819			  -0.00974			 0.31705
	89.00			  10.16691			  -0.07622			 0.20858
	89.25			  10.31946			  -0.02486			 0.19082
	89.50			  9.96928			  -0.04756			 0.07388
	89.75			  9.79020			  0.15130			 -0.11806
	90.00			  9.69501			  0.14612			 -0.11985
	90.25			  9.96374			  0.11248			 0.12847
	90.50			  9.83220			  -0.18172			 0.20541
	90.75			  9.97770			  -0.10269			 0.13615
	91.00			  10.13728			  0.09477			 0.21954
	91.25			  10.12225			  0.17797			 -0.00016
	91.50			  10.20753			  0.25421			 0.11641
	91.75			  10.16073			  0.11885			 0.19479
	92.00			  9.92270			  0.06312			 0.16032
	92.25			  9.89701			  0.08203			 0.19006
	92.50			  9.90213			  -0.18192			 0.17421
	92.75			  9.94103			  -0.33180			 0.20831
	93.00			  10.02812			  -0.30533			 0.14165
	93.25			  10.12534			  -0.06447			 -0.05796
	93.50			  10.22768			  -0.22670			 0.00546
	93.75			  10.31466			  -0.20680			 0.08735
	94.00			  10.49023			  -0.01013			 0.05421
	94.25			  10.32745			  -0.02367			 -0.12852
	94.50			  10.24995			  0.08043			 -0.20225
	94.75			  10.34365			  -0.07821			 -0.15681
	95.00			  10.50867			  -0.16062			 0.00210
	95.25			  10.46123			  -0.31707			 0.14092
	95.50			  10.39898			  -0.31568			 0.22820
	95.75			  10.42541			  -0.08259			 0.13989
	96.00			  10.48020			  -0.35310			 0.27883
	96.25			  10.51208			  -0.58559			 0.52930
	96.50			  10.31413			  -0.54499			 0.42884
	96.75			  10.33683			  -0.44228			 0.28849
	97.00			  10.32010			  -0.39331			 0.26417
	97.25			  10.30101			  -0.34016			 0.23145
	97.50			  10.30219			  -0.34474			 0.32530
	97.75			  10.24057			  -0.14211			 0.17250
	98.00			  10.21691			  -0.07443			 0.29964
	98.25			  10.31636			  -0.25616			 0.20884
	98.50			  10.19484			  -0.27547			 0.04902
	98.75			  10.30741			  -0.19943			 -0.02692
	99.00			  10.23535			  -0.08657			 -0.01497
	99.25			  10.13515			  -0.02048			 -0.00134
	99.50			  10.06458			  -0.19127			 -0.17609
	99.75			  10.14506			  -0.12638			 -0.16216
	100.00			  10.25059			  -0.16082			 -0.18071
	100.25			  10.40527			  -0.12996			 -0.09198
	100.50			  10.51655			  -0.09811			 -0.12864
	100.75			  10.20103			  -0.31886			 -0.06946
	101.00			  10.33214			  -0.22332			 -0.12367
	101.25			  10.27842			  0.05336			 -0.30072
	101.50			  9.95095			  -0.12598			 -0.16544
	101.75			  10.12001			  -0.17097			 -0.42328
	102.00			  9.99774			  -0.18152			 -0.39579
	102.25			  9.95063			  -0.29159			 -0.70948
	102.50			  10.04379			  -0.11464			 -0.47127
	102.75			  10.15711			  -0.08080			 -0.23997
	103.00			  10.25326			  0.20146			 -0.34539
	103.25			  10.21478			  0.14413			 -0.55806
	103.50			  10.22842			  0.11626			 -0.39224
	103.75			  10.27724			  -0.06905			 -0.17525
	104.00			  10.20710			  -0.09652			 -0.24852
	104.25			  10.24324			  -0.17097			 -0.30839
	104.50			  10.18461			  -0.28443			 -0.42484
	104.75			  10.28044			  -0.38037			 -0.51774
	105.00			  10.39749			  -0.30135			 -0.44328
	105.25			  10.49929			  -0.40684			 -0.50590
	105.50			  10.30443			  -0.56569			 -0.50884
	105.75			  10.39386			  -0.46377			 -0.50017
	106.00			  10.57326			  -0.13872			 -0.67260
	106.25			  10.44290			  -0.32961			 -0.54511
	106.50			  10.35975			  -0.41461			 -0.33092
	106.75			  10.44705			  -0.18470			 -0.13723
	107.00			  10.30219			  0.08203			 -0.17823
	107.25			  10.22458			  -0.09831			 -0.17338
	107.50			  10.39823			  -0.06428			 -0.16185
	107.75			  10.31999			  0.03127			 -0.05277
	108.00			  10.40047			  -0.06925			 0.21106
	108.25			  10.47957			  -0.23626			 0.26692
	108.50			  10.40377			  -0.24044			 0.17135
	108.75			  10.21243			  -0.01630			 0.38398
	109.00			  10.28108			  -0.10030			 0.55797
	109.25			  10.11735			  -0.00874			 0.33813
	109.50			  10.01747			  -0.10011			 -0.04471
	109.75			  9.95105			  0.05436			 0.00672
	110.00			  10.17448			  0.04739			 -0.03265
	110.25			  10.07641			  -0.21118			 -0.16407
	110.50			  9.90586			  -0.01232			 -0.03880
	110.75			  9.94263			  0.20703			 -0.00401
	111.00			  9.98719			  0.23331			 -0.11562
	111.25			  10.06085			  0.19509			 0.10118
	111.50			  10.02557			  0.19688			 0.11515
	111.75			  10.01054			  0.30437			 0.18487
	112.00			  10.26115			  0.10253			 0.02646
	112.25			  10.33363			  0.00559			 0.11626
	112.50			  10.25315			  0.22753			 0.21217
	112.75			  10.38491			  -0.17276			 -0.04563
	113.00			  10.41689			  -0.44387			 0.03611
	113.25			  10.51581			  -0.13892			 -0.16834
	113.50			  10.49385			  -0.17176			 -0.21721
	113.75			  10.52284			  -0.27348			 -0.19805
	114.00			  10.46624			  -0.53125			 -0.20309
	114.25			  10.56538			  -0.34832			 -0.40369
	114.50			  10.59789			  -0.44526			 -0.43744
	114.75			  10.41785			  -0.58957			 -0.44084
	115.00			  10.21680			  -0.59196			 -0.26105
	115.25			  10.15306			  -0.40665			 -0.26391
	115.50			  10.37201			  -0.38953			 -0.38693
	115.75			  10.28588			  -0.71577			 -0.25467
	116.00			  10.21680			  -0.95623			 -0.31190
	116.25			  10.41220			  -0.91283			 -0.44195
	116.50			  10.36156			  -0.82346			 -0.36700
	116.75			  10.36508			  -0.75140			 -0.46066
	117.00			  10.41614			  -0.49861			 -0.38693
	117.25			  10.49673			  -0.26233			 -0.32229
	117.50			  10.45334			  -0.34335			 -0.32553
	117.75			  10.43970			  -0.34514			 -0.33157
	118.00			  10.48532			  -0.09393			 -0.10760
	118.25			  10.43213			  -0.34872			 -0.03463
	118.50			  10.32404			  -0.34812			 0.01668
	118.75			  10.28897			  -0.34295			 0.08124
	119.00			  9.96811			  -0.32105			 0.08357
	119.25			  9.79478			  -0.12379			 -0.00817
	119.50			  9.67273			  -0.22730			 0.04776
	119.75			  9.53948			  -0.22352			 -0.31297
	120.00			  9.81653			  -0.35529			 -0.24818
	120.25			  10.04006			  -0.35967			 -0.26792
	120.50			  10.00158			  -0.57544			 -0.26643
	120.75			  10.15178			  -0.48726			 -0.19427
	121.00			  10.13739			  -0.60231			 -0.11917
	121.25			  10.02653			  -0.44506			 -0.27338
	121.50			  9.93794			  -0.35688			 -0.29724
	121.75			  10.04987			  -0.12757			 -0.17205
	122.00			  10.03356			  -0.12101			 -0.06457
	122.25			  9.95063			  -0.39550			 -0.25784
	122.50			  10.09347			  -0.28423			 -0.04807
	122.75			  10.25614			  -0.33240			 -0.03864
	123.00			  10.40505			  -0.50358			 -0.14696
	123.25			  10.37222			  -0.35907			 -0.32362
	123.50			  10.56868			  -0.34434			 -0.41049
	123.75			  10.75789			  -0.33041			 -0.25700
	124.00			  10.87739			  -0.33320			 -0.16304
	124.25			  10.78294			  -0.25815			 -0.43110
	124.50			  10.63115			  -0.18152			 -0.31011
	124.75			  10.50099			  -0.59754			 -0.23535
	125.00			  10.48596			  -0.50358			 -0.31423
	125.25			  10.44364			  -0.49622			 -0.27288
	125.50			  10.46869			  -0.44168			 -0.25925
	125.75			  10.51474			  -0.37559			 -0.14166
	126.00			  10.20817			  -0.35171			 -0.14662
	126.25			  9.92952			  -0.35031			 -0.44008
	126.50			  9.67347			  -0.35728			 -0.26032
	126.75			  9.82879			  -0.19764			 -0.23287
	127.00			  9.78615			  -0.18331			 -0.31652
	127.25			  9.94285			  -0.09155			 -0.31171
	127.50			  10.04113			  -0.36106			 -0.22344
	127.75			  10.30379			  -0.27268			 -0.28529
	128.00			  10.17587			  -0.13275			 -0.17071
	128.25			  10.21328			  -0.04497			 -0.07908
	128.50			  10.56836			  -0.09533			 0.03909
	128.75			  10.62400			  -0.37181			 0.10965
	129.00			  10.53947			  -0.30592			 -0.00153
	129.25			  10.57199			  -0.25258			 -0.11508
	129.50			  10.48713			  -0.34036			 -0.11107
	129.75			  10.60290			  -0.33240			 -0.12371
	130.00			  10.46144			  -0.13812			 -0.24604
	130.25			  10.54768			  -0.24601			 -0.09546
	130.50			  10.19037			  -0.31468			 -0.09931
	130.75			  10.14325			  -0.39829			 -0.09901
	131.00			  10.02898			  -0.43531			 -0.11997
	131.25			  10.11596			  -0.24661			 -0.16052
	131.50			  9.99721			  -0.30035			 0.01989
	131.75			  10.13643			  -0.53085			 -0.09145
	132.00			  10.07279			  -0.22790			 -0.29747
	132.25			  10.01395			  -0.08179			 -0.40151
	132.50			  10.17928			  -0.43372			 -0.20496
	132.75			  10.05925			  -0.52150			 -0.16582
	133.00			  10.08483			  -0.63575			 -0.22768
	133.25			  10.07449			  -0.45123			 -0.19217
	133.50			  9.72869			  -0.39908			 -0.35444
	133.75			  9.54268			  -0.31349			 -0.32393
	134.00			  9.59395			  -0.18610			 -0.17457
	134.25			  9.57327			  -0.33120			 -0.16403
	134.50			  9.56464			  -0.48925			 -0.37410
	134.75			  9.53373			  -0.00337			 -0.25543
	135.00			  9.58916			  -0.29139			 -0.16433
	135.25			  9.52680			  -0.30573			 -0.27693
	135.50			  9.64309			  -0.41361			 -0.25543
	135.75			  9.63521			  -0.27607			 -0.44302
	136.00			  9.86738			  -0.33558			 -0.63144
	136.25			  9.71718			  -0.24701			 -0.60784
	136.50			  9.90373			  -0.19804			 -0.70154
	136.75			  9.99604			  -0.42436			 -0.47627
	137.00			  9.91620			  -0.46397			 -0.40674
	137.25			  9.82292			  -0.48507			 -0.27456
	137.50			  9.76675			  -0.42177			 -0.14547
	137.75			  9.72475			  -0.31011			 -0.16281
	138.00			  9.87132			  -0.20859			 -0.32492
	138.25			  9.72571			  -0.16679			 -0.49395
	138.50			  9.76248			  -0.02725			 -0.53667
	138.75			  9.82932			  -0.30533			 -0.43401
	139.00			  9.70887			  0.01734			 -0.52694
	139.25			  9.76760			  0.03724			 -0.66756
	139.50			  9.78316			  -0.24621			 -0.75717
	139.75			  9.74084			  -0.20102			 -0.72250
	140.00			  9.87622			  -0.23287			 -0.49219
	140.25			  9.94327			  -0.29956			 -0.51945
	140.50			  9.72294			  -0.25974			 -0.44317
	140.75			  9.51166			  -0.25875			 -0.59601
	141.00			  9.31840			  -0.35887			 -0.60341
	141.25			  9.55995			  -0.43531			 -0.64637
	141.50			  9.56421			  -0.31807			 -0.47856
	141.75			  9.57477			  -0.16440			 -0.36379
	142.00			  9.61634			  -0.07542			 -0.34592
	142.25			  9.61442			  -0.06288			 -0.35719
	142.50			  9.66772			  -0.24382			 -0.22779
	142.75			  9.57146			  -0.18948			 -0.12325
	143.00			  9.50601			  -0.22829			 -0.07484
	143.25			  9.57199			  -0.28443			 -0.13306
	143.50			  9.55728			  -0.49701			 -0.04804
	143.75			  9.61069			  -0.42695			 -0.06495
	144.00			  9.56720			  -0.28343			 0.06563
	144.25			  9.40165			  -0.28164			 -0.13161
	144.50			  9.57978			  -0.39231			 -0.35772
	144.75			  9.58553			  -0.30314			 -0.30618
	145.00			  9.77847			  -0.35031			 -0.15677
	145.25			  9.71771			  -0.28502			 -0.02643
	145.50			  9.82698			  -0.22292			 -0.24791
	145.75			  9.72400			  -0.50657			 -0.21046
	146.00			  9.80523			  -0.70542			 -0.29892
	146.25			  9.86301			  -0.72493			 -0.37517
	146.50			  9.72326			  -0.46636			 -0.29789
	146.75			  9.93229			  -0.41003			 -0.22978
	147.00			  9.78647			  -0.41580			 -0.18335
	147.25			  9.69821			  -0.45840			 -0.11199
	147.50			  9.59193			  -0.50816			 -0.28132
	147.75			  9.58287			  -0.37798			 -0.24971
	148.00			  9.62455			  -0.61784			 -0.30419
	148.25			  9.76824			  -0.55713			 -0.40445
	148.50			  9.83668			  -0.53643			 -0.44214
	148.75			  9.84616			  -0.55255			 -0.28487
	149.00			  9.71921			  -0.72155			 -0.28827
	149.25			  9.38023			  -0.81311			 -0.25307
	149.50			  9.49205			  -0.73846			 -0.32595
	149.75			  9.64693			  -0.82028			 -0.15823
	150.00			  9.47201			  -0.61087			 -0.24123
	150.25			  9.58788			  -0.35449			 -0.14135
	150.50			  9.48085			  -0.54021			 -0.07637
	150.75			  9.44461			  -0.65566			 0.12584
	151.00			  9.51635			  -0.89432			 0.42430
	151.25			  9.76184			  -0.69686			 0.21220
	151.50			  9.79063			  -0.55812			 0.16559
	151.75			  9.83646			  -0.51831			 0.12721
	152.00			  9.93421			  -0.35688			 0.05692
	152.25			  9.87452			  -0.44884			 0.10137
	152.50			  9.90458			  -0.35390			 0.04875
	152.75			  9.86258			  -0.09712			 0.02810
	153.00			  10.02386			  0.12323			 0.11446
	153.25			  9.96044			  -0.01571			 0.18292
	153.50			  10.10445			  0.04102			 0.15505
	153.75			  10.06671			  0.14811			 0.29322
	154.00			  10.13259			  0.31372			 0.44339
	154.25			  10.05627			  0.03983			 0.49196
	154.50			  10.01075			  -0.12001			 0.55037
	154.75			  9.91321			  0.01734			 0.55469
	155.00			  9.97589			  -0.02884			 0.37150
	155.25			  9.84595			  0.02948			 0.27452
	155.50			  9.75236			  -0.00058			 0.23832
	155.75			  9.68605			  0.21261			 0.19541
	156.00			  9.93560			  0.28904			 0.34324
	156.25			  10.10157			  0.10392			 0.30846
	156.50			  10.14719			  0.07486			 0.62303
	156.75			  10.10797			  -0.16241			 0.40475
	157.00			  10.13195			  -0.06467			 0.13584
	157.25			  10.06447			  -0.09792			 0.16673
	157.50			  10.07641			  -0.08538			 0.39605
	157.75			  10.07791			  -0.03939			 0.37508
	158.00			  9.95756			  -0.05552			 0.24504
	158.25			  9.91780			  0.06829			 0.03104
	158.50			  9.65056			  0.14752			 0.05414
	158.75			  9.63265			  0.11965			 0.03692
	159.00			  9.97802			  0.28944			 0.08544
	159.25			  9.73306			  0.37643			 0.04253
	159.50			  9.73509			  0.47496			 -0.05426
	159.75			  9.73093			  0.33124			 -0.19305
	160.00			  9.58223			  0.16045			 -0.24791
	160.25			  9.40783			  0.35672			 -0.11439
	160.50			  9.27821			  0.16125			 -0.15471
	160.75			  9.21404			  0.35413			 -0.17735
	161.00			  9.12972			  0.37244			 -0.26609
	161.25			  9.22214			  0.26834			 -0.32538
	161.50			  9.19986			  0.42181			 -0.39854
	161.75			  9.31531			  0.56632			 -0.43393
	162.00			  9.42564			  0.45644			 -0.33790
	162.25			  9.32320			  0.67222			 -0.25746
	162.50			  9.32714			  0.74268			 -0.26055
	162.75			  9.29463			  0.61389			 -0.27410
	163.00			  9.33172			  0.56194			 -0.08133
	163.25			  9.60770			  0.52193			 0.00103
	163.50			  9.50271			  0.38578			 -0.00329
	163.75			  9.27597			  0.18991			 -0.10909
	164.00			  9.22790			  0.25560			 -0.02398
	164.25			  9.19144			  0.12542			 0.03596
	164.50			  9.08879			  0.33383			 -0.00462
	164.75			  9.23248			  0.26376			 -0.12226
	165.00			  9.19006			  0.17857			 -0.03559
	165.25			  8.93753			  0.16623			 -0.02765
	165.50			  9.05745			  0.28546			 -0.01757
	165.75			  9.23653			  0.23092			 0.12889