--------------TurbSim v2.00.* User Time Series Input File-----------------------
     Time series input from low-res turbsim run
--------------------------------------------------------------------------------
          3 nComp - Number of velocity components in the file
          1 nPoints - Number of time series points contained in this file (-)
          1 RefPtID - Index of the reference point (1-nPoints)
     Pointyi Pointzi ! nPoints listed in order of increasing height
       (m)     (m)
       1.68671   94.00000
--------Time Series-------------------------------------------------------------
Elapsed Time         Point01u             Point01v           Point01w
         (s)            (m/s)                (m/s)              (m/s)
	0.00			  10.22575			  -0.45975			 0.08092
	0.25			  10.10745			  -0.24845			 0.09868
	0.50			  10.28411			  -0.23745			 0.37733
	0.75			  10.22935			  -0.17591			 0.31641
	1.00			  10.15443			  -0.05873			 0.23908
	1.25			  10.02926			  -0.08263			 0.21966
	1.50			  10.19916			  -0.28483			 0.09212
	1.75			  10.38675			  -0.10907			 0.10273
	2.00			  10.47733			  -0.11098			 -0.05764
	2.25			  10.59957			  -0.21123			 0.17174
	2.50			  10.70953			  -0.15074			 0.04631
	2.75			  10.84157			  -0.20446			 -0.03880
	3.00			  10.82918			  -0.56931			 0.02661
	3.25			  10.74299			  -0.46186			 0.35346
	3.50			  10.91514			  -0.68563			 -0.10448
	3.75			  10.71009			  -0.92209			 -0.12170
	4.00			  10.61996			  -0.81994			 -0.05287
	4.25			  10.54616			  -0.97476			 -0.19575
	4.50			  10.18158			  -0.92950			 -0.13721
	4.75			  9.82534			  -0.81169			 -0.14243
	5.00			  9.99096			  -0.87831			 -0.29879
	5.25			  10.13629			  -0.73153			 -0.08537
	5.50			  9.87604			  -0.88508			 -0.14319
	5.75			  9.72349			  -0.98026			 -0.02082
	6.00			  9.70547			  -1.00818			 0.18761
	6.25			  10.01563			  -1.02235			 0.03259
	6.50			  10.17629			  -0.91448			 -0.05139
	6.75			  10.11004			  -0.86351			 -0.13681
	7.00			  10.19916			  -0.64354			 0.11905
	7.25			  10.26924			  -0.60632			 0.44166
	7.50			  10.40533			  -0.78610			 0.48487
	7.75			  10.38934			  -0.71926			 0.25824
	8.00			  10.15229			  -0.48238			 0.35161
	8.25			  10.06802			  -0.44621			 0.46495
	8.50			  9.99558			  -0.36626			 0.46311
	8.75			  10.22552			  -0.40962			 0.33965
	9.00			  10.28343			  -0.19050			 0.33071
	9.25			  10.29830			  -0.02743			 0.03471
	9.50			  10.42494			  0.00535			 -0.17376
	9.75			  10.22744			  0.17667			 -0.31551
	10.00			  10.18958			  0.11766			 -0.22614
	10.25			  10.38111			  0.05484			 0.11446
	10.50			  10.57016			  -0.10548			 -0.16909
	10.75			  10.51124			  0.03221			 -0.44022
	11.00			  10.25189			  0.15171			 -0.46113
	11.25			  10.28264			  0.24393			 -0.25518
	11.50			  10.10779			  0.29025			 -0.29164
	11.75			  9.97834			  0.04469			 -0.46131
	12.00			  10.12187			  0.17033			 -0.33682
	12.25			  10.09866			  0.11999			 -0.19300
	12.50			  9.88291			  0.24752			 -0.38672
	12.75			  9.88595			  0.22553			 -0.17893
	13.00			  10.19499			  0.05527			 -0.02594
	13.25			  10.25583			  -0.11098			 0.04374
	13.50			  10.18023			  -0.26685			 -0.08047
	13.75			  10.23318			  -0.29245			 0.00656
	14.00			  10.33176			  -0.35209			 -0.16693
	14.25			  10.23442			  -0.18817			 -0.13618
	14.50			  10.20378			  -0.09913			 -0.13955
	14.75			  10.19510			  -0.31190			 0.08398
	15.00			  10.26214			  -0.15687			 0.15456
	15.25			  10.11477			  -0.35738			 -0.18006
	15.50			  9.91130			  -0.21842			 -0.36636
	15.75			  9.98893			  -0.30831			 -0.13357
	16.00			  10.04278			  -0.49232			 0.23283
	16.25			  9.73104			  -0.47180			 0.12539
	16.50			  10.04120			  -0.39122			 0.14625
	16.75			  10.07962			  -0.47920			 0.25716
	17.00			  9.96583			  -0.50268			 0.13078
	17.25			  9.76461			  -0.50416			 -0.17124
	17.50			  9.78523			  -0.46630			 -0.14382
	17.75			  9.52227			  -0.12642			 -0.13757
	18.00			  9.69904			  0.08678			 -0.17439
	18.25			  10.16198			  0.23060			 -0.26691
	18.50			  10.16232			  0.15150			 -0.07701
	18.75			  9.99017			  0.10539			 0.10925
	19.00			  10.00572			  0.02312			 0.46288
	19.25			  10.04075			  -0.06973			 0.30364
	19.50			  10.22237			  -0.21652			 0.21238
	19.75			  10.24558			  -0.41935			 -0.11271
	20.00			  10.32343			  -0.66935			 -0.10106
	20.25			  10.45310			  -0.65433			 -0.16940
	20.50			  10.26935			  -0.42019			 0.17345
	20.75			  10.26665			  -0.37261			 0.08065
	21.00			  10.23837			  -0.30281			 0.06357
	21.25			  10.27577			  -0.28779			 -0.13294
	21.50			  10.29064			  -0.46842			 -0.29182
	21.75			  10.38697			  -0.48809			 -0.58319
	22.00			  10.47530			  -0.70551			 -0.67126
	22.25			  10.13449			  -0.98364			 -0.74032
	22.50			  10.25042			  -0.89037			 -0.63894
	22.75			  10.20299			  -0.81105			 -0.50564
	23.00			  10.19882			  -0.75839			 -0.38780
	23.25			  10.32298			  -0.72349			 -0.64532
	23.50			  10.22395			  -0.78948			 -0.54205
	23.75			  10.19093			  -0.74782			 -0.37877
	24.00			  10.02205			  -0.59447			 -0.47727
	24.25			  10.01112			  -0.34384			 -0.61052
	24.50			  9.97451			  -0.27510			 -0.39567
	24.75			  9.95817			  -0.33517			 -0.04671
	25.00			  9.78647			  0.03179			 -0.07940
	25.25			  9.86590			  -0.06698			 -0.44373
	25.50			  9.86894			  -0.04541			 -0.92320
	25.75			  10.02656			  -0.15285			 -0.64896
	26.00			  10.14193			  0.02016			 -0.48055
	26.25			  10.14531			  0.23780			 -0.50496
	26.50			  10.17809			  0.20628			 -0.42557
	26.75			  10.26529			  0.38394			 -0.21980
	27.00			  10.18778			  0.27840			 -0.10588
	27.25			  10.06464			  0.36470			 -0.40709
	27.50			  10.23814			  0.16102			 -0.33961
	27.75			  10.16806			  0.08953			 -0.31466
	28.00			  10.15297			  0.23568			 -0.36240
	28.25			  10.02532			  0.39685			 -0.32756
	28.50			  10.00470			  0.25493			 -0.29676
	28.75			  9.85959			  0.13585			 -0.14845
	29.00			  9.97135			  0.15044			 -0.25909
	29.25			  10.35948			  -0.00353			 -0.22865
	29.50			  10.40015			  -0.00395			 -0.11230
	29.75			  10.63630			  -0.11563			 -0.14926
	30.00			  10.48735			  -0.07523			 -0.12462
	30.25			  10.49603			  -0.21673			 0.05197
	30.50			  10.59360			  -0.15074			 -0.09715
	30.75			  10.73544			  -0.13043			 -0.01605
	31.00			  10.78287			  -0.19008			 -0.07333
	31.25			  10.52341			  -0.22223			 0.07535
	31.50			  10.32940			  -0.26284			 0.06168
	31.75			  10.43688			  -0.44198			 0.12251
	32.00			  10.29875			  -0.60124			 0.27959
	32.25			  10.37221			  -0.52024			 0.22070
	32.50			  10.31870			  -0.44600			 0.33624
	32.75			  10.26484			  -0.23619			 0.39306
	33.00			  10.20750			  -0.65560			 0.34604
	33.25			  10.21448			  -0.48090			 0.29604
	33.50			  9.99242			  -0.26939			 0.22088
	33.75			  10.30540			  -0.26982			 0.25963
	34.00			  10.13426			  -0.15560			 0.32077
	34.25			  10.24884			  -0.00142			 0.27321
	34.50			  10.45096			  0.24054			 0.32275
	34.75			  10.02487			  0.02248			 0.16535
	35.00			  10.28242			  0.01529			 0.19255
	35.25			  10.47586			  0.00366			 0.08686
	35.50			  10.69826			  -0.06825			 0.29312
	35.75			  10.37277			  -0.18585			 0.26912
	36.00			  10.27893			  -0.09829			 0.08470
	36.25			  10.35272			  0.13289			 -0.04123
	36.50			  10.19893			  0.36576			 0.08501
	36.75			  10.17494			  0.33847			 -0.05588
	37.00			  10.21065			  0.19994			 -0.03363
	37.25			  10.14317			  0.15235			 -0.13141
	37.50			  10.20952			  -0.12070			 -0.19156
	37.75			  10.14395			  -0.31042			 -0.04927
	38.00			  10.27464			  -0.02912			 -0.20083
	38.25			  10.37706			  -0.02828			 -0.29074
	38.50			  10.42933			  -0.24169			 -0.05795
	38.75			  10.49873			  -0.31021			 -0.22285
	39.00			  10.38844			  -0.07269			 -0.35624
	39.25			  10.54245			  0.10645			 -0.28881
	39.50			  10.48014			  0.12126			 -0.27694
	39.75			  10.35317			  -0.02764			 -0.11460
	40.00			  10.28062			  -0.26516			 -0.14081
	40.25			  10.42088			  -0.30810			 -0.06456
	40.50			  10.22766			  -0.04329			 0.06658
	40.75			  10.07579			  -0.35949			 0.04999
	41.00			  10.30281			  -0.39989			 0.07903
	41.25			  10.26946			  -0.50776			 -0.01394
	41.50			  10.22778			  -0.29498			 0.04945
	41.75			  10.50189			  -0.38720			 0.47628
	42.00			  10.35542			  -0.42971			 0.48644
	42.25			  10.12604			  -0.34659			 0.35593
	42.50			  10.03163			  -0.30852			 0.21980
	42.75			  9.96763			  0.00070			 0.06011
	43.00			  10.02814			  0.26825			 0.11131
	43.25			  9.74163			  0.24626			 -0.03057
	43.50			  9.79458			  -0.00353			 -0.10682
	43.75			  10.11489			  0.18894			 -0.05602
	44.00			  10.31577			  0.28285			 -0.45281
	44.25			  10.03940			  0.37845			 -0.33242
	44.50			  10.10925			  0.34376			 -0.25576
	44.75			  10.29504			  0.30527			 -0.29025
	45.00			  10.26619			  0.06838			 -0.27002
	45.25			  10.25921			  0.11364			 -0.04586
	45.50			  10.14226			  -0.13361			 0.05494
	45.75			  9.92167			  -0.14101			 -0.15686
	46.00			  9.87840			  -0.06043			 0.04945
	46.25			  9.85159			  -0.00586			 0.15825
	46.50			  9.57590			  -0.09829			 0.03327
	46.75			  9.53185			  -0.28885			 0.18127
	47.00			  9.62502			  -0.03822			 -0.09648
	47.25			  9.54605			  -0.06021			 -0.17794
	47.50			  9.61117			  -0.11161			 0.10160
	47.75			  9.68383			  0.04829			 -0.03484
	48.00			  9.96797			  0.34334			 -0.22155
	48.25			  10.09540			  0.31732			 -0.04284
	48.50			  10.09292			  0.27375			 0.02828
	48.75			  10.29256			  0.00789			 -0.22470
	49.00			  10.53265			  0.14029			 -0.35373
	49.25			  10.37570			  0.07198			 -0.30670
	49.50			  10.24017			  0.11364			 -0.41136
	49.75			  10.49276			  0.11618			 -0.34545
	50.00			  10.43159			  -0.07713			 -0.39832
	50.25			  10.61320			  -0.03208			 -0.35472
	50.50			  10.70874			  -0.36965			 -0.34995
	50.75			  10.71910			  -0.55408			 -0.22641
	51.00			  10.50313			  -0.62155			 -0.13721
	51.25			  10.47541			  -0.66004			 -0.21076
	51.50			  10.55799			  -0.51114			 -0.10187
	51.75			  10.25977			  -0.49612			 -0.17880
	52.00			  10.25774			  -0.74422			 -0.13029
	52.25			  10.48228			  -0.71080			 0.02864
	52.50			  10.42111			  -0.90285			 -0.13200
	52.75			  10.52397			  -0.94938			 -0.12790
	53.00			  10.64880			  -0.63931			 0.26017
	53.25			  10.47068			  -0.58707			 0.32765
	53.50			  10.48116			  -0.40074			 0.37337
	53.75			  10.56014			  -0.55535			 0.63808
	54.00			  10.49693			  -1.01410			 0.60863
	54.25			  10.75313			  -1.10357			 0.47961
	54.50			  11.17156			  -1.17505			 0.48478
	54.75			  11.08707			  -1.10378			 0.37755
	55.00			  11.02656			  -1.17907			 0.28989
	55.25			  10.80484			  -0.94071			 0.23221
	55.50			  10.59596			  -0.73724			 0.19125
	55.75			  10.61557			  -0.48386			 0.08964
	56.00			  10.49896			  -0.15412			 0.07841
	56.25			  10.62052			  -0.36097			 0.23697
	56.50			  10.71370			  -0.12705			 0.18266
	56.75			  10.69049			  -0.24063			 0.13114
	57.00			  10.64384			  -0.21927			 0.19138
	57.25			  10.43722			  -0.11584			 0.00917
	57.50			  10.40894			  -0.29012			 0.45474
	57.75			  10.37683			  -0.24824			 0.20514
	58.00			  10.47688			  -0.20848			 0.17875
	58.25			  10.49648			  -0.38614			 -0.01371
	58.50			  10.49456			  -0.51791			 -0.18001
	58.75			  10.42764			  -0.51474			 0.19781
	59.00			  10.47181			  -0.42062			 0.12507
	59.25			  10.44071			  -0.52658			 0.13788
	59.50			  10.18395			  -0.30323			 -0.06236
	59.75			  10.50144			  -0.44748			 0.11617
	60.00			  10.38753			  -0.60822			 0.06173
	60.25			  10.54932			  -0.45255			 -0.00319
	60.50			  10.65455			  -0.44727			 0.09499
	60.75			  10.51135			  -0.14672			 -0.03012
	61.00			  10.61872			  -0.02130			 -0.38641
	61.25			  10.60554			  0.05844			 -0.25185
	61.50			  10.48713			  0.18407			 -0.08398
	61.75			  10.43643			  0.15912			 0.01097
	62.00			  10.51135			  0.39960			 -0.09792
	62.25			  10.24231			  0.18492			 -0.23005
	62.50			  10.20164			  -0.07460			 -0.10093
	62.75			  10.49265			  -0.00395			 -0.06825
	63.00			  10.50425			  -0.19727			 0.01389
	63.25			  10.52036			  -0.16745			 -0.05898
	63.50			  10.63303			  0.05738			 -0.21562
	63.75			  10.54425			  0.02016			 -0.05782
	64.00			  10.55360			  -0.05493			 0.07571
	64.25			  10.76778			  -0.45911			 -0.03538
	64.50			  10.88483			  -0.67781			 0.09180
	64.75			  10.69770			  -0.39418			 0.23998
	65.00			  10.62571			  -0.61901			 0.46706
	65.25			  10.64148			  -0.69452			 0.29272
	65.50			  10.71606			  -0.67167			 0.16351
	65.75			  10.95581			  -0.84088			 0.12894
	66.00			  10.91052			  -0.73661			 0.16958
	66.25			  10.81554			  -0.79392			 0.21027
	66.50			  10.86850			  -0.82142			 0.15223
	66.75			  10.63675			  -1.28588			 0.17106
	67.00			  10.69511			  -1.03588			 0.20892
	67.25			  10.61117			  -0.89502			 0.21903
	67.50			  10.50808			  -0.64904			 0.36231
	67.75			  10.72834			  -0.47074			 0.52438
	68.00			  10.66007			  -0.65179			 0.49750
	68.25			  10.56419			  -0.45636			 0.23738
	68.50			  10.64745			  -0.59574			 0.27784
	68.75			  10.77397			  -0.60040			 -0.05975
	69.00			  10.62886			  -0.77383			 0.14243
	69.25			  10.26462			  -1.04646			 -0.05750
	69.50			  10.37311			  -0.85018			 -0.14279
	69.75			  10.21955			  -0.90010			 -0.17830
	70.00			  9.90713			  -0.71249			 0.05777
	70.25			  9.95062			  -0.43775			 -0.05305
	70.50			  9.77070			  -0.43648			 -0.52079
	70.75			  10.01304			  -0.44388			 -0.44148
	71.00			  10.24760			  -0.27531			 -0.38920
	71.25			  10.15184			  -0.23026			 -0.48325
	71.50			  10.04301			  -0.15180			 -0.43802
	71.75			  9.88516			  -0.27447			 -0.58688
	72.00			  10.10903			  -0.41766			 -0.23926
	72.25			  10.16761			  -0.27891			 -0.34469
	72.50			  9.87638			  -0.32354			 -0.19682
	72.75			  9.96876			  -0.25712			 -0.27955
	73.00			  9.95873			  -0.26347			 -0.46090
	73.25			  9.79301			  -0.00755			 -0.46846
	73.50			  9.57815			  -0.15053			 -0.21476
	73.75			  9.60260			  -0.45805			 -0.22335
	74.00			  9.74343			  -0.18902			 -0.01780
	74.25			  9.69172			  -0.21779			 0.04500
	74.50			  9.77295			  -0.57248			 0.04010
	74.75			  9.74467			  -0.05260			 0.21296
	75.00			  9.58875			  0.05167			 0.11073
	75.25			  9.71797			  0.01064			 0.03525
	75.50			  9.83447			  0.20797			 0.27087
	75.75			  9.92189			  -0.04943			 0.04230
	76.00			  9.99974			  -0.08771			 -0.12638
	76.25			  9.84584			  -0.00988			 -0.31057
	76.50			  9.90567			  -0.28229			 -0.17808
	76.75			  10.02329			  -0.19938			 -0.25077
	77.00			  9.82895			  -0.17654			 -0.34986
	77.25			  10.11556			  -0.39672			 -0.35746
	77.50			  10.47226			  -0.53102			 -0.35989
	77.75			  10.14373			  -0.48047			 -0.15964
	78.00			  9.99997			  -0.49422			 -0.23180
	78.25			  9.91536			  -0.56719			 -0.36888
	78.50			  10.01101			  -0.64524			 -0.44850
	78.75			  10.19646			  -0.59215			 -0.30719
	79.00			  10.13719			  -0.41660			 -0.14683
	79.25			  10.11770			  -0.43648			 0.17151
	79.50			  9.97462			  -0.72201			 0.03871
	79.75			  10.13562			  -0.61245			 0.20860
	80.00			  10.15252			  -0.69071			 0.15776
	80.25			  10.07782			  -1.00860			 -0.09738
	80.50			  10.14914			  -0.86858			 -0.22339
	80.75			  10.05078			  -1.15158			 -0.08173
	81.00			  10.08334			  -0.97899			 -0.52420
	81.25			  9.99839			  -0.93225			 -0.44234
	81.50			  10.26236			  -0.75522			 -0.42116
	81.75			  10.21381			  -0.75014			 -0.24232
	82.00			  10.18023			  -0.93711			 -0.29596
	82.25			  10.26022			  -0.87303			 0.03399
	82.50			  10.13055			  -0.91385			 0.22070
	82.75			  10.10813			  -1.17548			 0.31987
	83.00			  9.88314			  -1.14164			 0.01533
	83.25			  9.79650			  -1.02066			 -0.07751
	83.50			  9.84066			  -1.04308			 -0.11307
	83.75			  9.91603			  -1.14862			 -0.20676
	84.00			  10.07692			  -1.05048			 -0.10080
	84.25			  9.92809			  -0.93605			 -0.15074
	84.50			  9.86748			  -0.82205			 -0.19035
	84.75			  9.89621			  -0.80767			 -0.17893
	85.00			  9.99963			  -0.71228			 -0.36272
	85.25			  10.13494			  -0.54498			 -0.46099
	85.50			  10.21809			  -0.73280			 -0.08398
	85.75			  10.44195			  -0.84532			 0.11199
	86.00			  10.27836			  -1.15665			 0.05193
	86.25			  10.21268			  -1.20593			 -0.15173
	86.50			  10.23476			  -1.03567			 -0.13231
	86.75			  10.48623			  -1.45361			 -0.00517
	87.00			  10.46865			  -1.56359			 -0.22326
	87.25			  10.37018			  -1.61223			 -0.14018
	87.50			  10.57309			  -1.53207			 -0.19957
	87.75			  10.62311			  -1.28017			 -0.58688
	88.00			  10.57940			  -1.24866			 -0.41213
	88.25			  10.37514			  -1.08411			 -0.38632
	88.50			  10.25876			  -1.07311			 0.02131
	88.75			  10.08650			  -1.33812			 -0.12997
	89.00			  10.13336			  -1.26283			 0.21696
	89.25			  10.17358			  -1.17484			 0.16931
	89.50			  10.28140			  -0.85674			 -0.02194
	89.75			  10.12221			  -0.94113			 0.18909
	90.00			  10.18001			  -0.89841			 0.18999
	90.25			  10.31239			  -0.77404			 0.02410
	90.50			  10.35261			  -1.11181			 -0.28211
	90.75			  10.38652			  -0.91660			 -0.15146
	91.00			  10.28546			  -0.73005			 -0.11091
	91.25			  10.57027			  -0.80534			 -0.03588
	91.50			  10.59044			  -1.31274			 -0.19916
	91.75			  10.38382			  -1.44726			 -0.12957
	92.00			  10.63325			  -1.27213			 -0.24488
	92.25			  10.77949			  -1.11731			 -0.34981
	92.50			  10.99750			  -1.32945			 -0.19970
	92.75			  10.96212			  -1.14058			 -0.07899
	93.00			  10.85194			  -1.19219			 0.10623
	93.25			  10.53952			  -0.83897			 -0.03727
	93.50			  10.46888			  -0.84976			 0.06276
	93.75			  10.56464			  -1.02023			 0.30706
	94.00			  10.47631			  -0.56634			 0.12017
	94.25			  10.56892			  -0.42971			 0.02670
	94.50			  10.41638			  -0.43860			 -0.00009
	94.75			  10.50144			  -0.32629			 -0.08893
	95.00			  10.39441			  -0.59786			 -0.18783
	95.25			  10.21876			  -0.78018			 -0.15196
	95.50			  10.23138			  -0.86055			 -0.19880
	95.75			  9.96076			  -0.92379			 -0.22164
	96.00			  10.08007			  -0.85251			 -0.17277
	96.25			  10.14700			  -0.93119			 -0.16221
	96.50			  10.19815			  -0.59892			 -0.23387
	96.75			  10.04244			  -0.39164			 -0.18460
	97.00			  9.97451			  -0.32756			 0.02500
	97.25			  10.25459			  -0.41681			 0.00126
	97.50			  10.36106			  -0.46990			 0.06218
	97.75			  10.31836			  -0.17464			 0.06397
	98.00			  10.09686			  -0.00247			 0.35575
	98.25			  10.12987			  0.00916			 0.15205
	98.50			  10.16209			  0.15044			 0.01295
	98.75			  10.21685			  0.29955			 0.04298
	99.00			  10.21651			  0.61998			 -0.16904
	99.25			  10.46933			  0.47976			 -0.10646
	99.50			  10.20074			  0.41186			 -0.04712
	99.75			  10.43913			  0.52015			 0.03677
	100.00			  10.50853			  0.55357			 -0.02913
	100.25			  10.47113			  0.37675			 -0.05854
	100.50			  10.50594			  0.44042			 -0.12831
	100.75			  10.45491			  0.45755			 -0.32945
	101.00			  10.60385			  0.50196			 -0.20523
	101.25			  10.65353			  0.48801			 -0.18374
	101.50			  10.91379			  0.37527			 -0.31398
	101.75			  10.87706			  0.49689			 -0.47340
	102.00			  10.89103			  0.52650			 -0.10920
	102.25			  11.20119			  0.61956			 -0.08241
	102.50			  10.95119			  0.46939			 -0.03412
	102.75			  10.94657			  0.30315			 -0.11581
	103.00			  11.14768			  0.43957			 -0.26579
	103.25			  11.04696			  0.13797			 -0.03170
	103.50			  11.13990			  0.42751			 0.04851
	103.75			  10.97530			  0.52819			 0.14085
	104.00			  11.09889			  0.30759			 0.28013
	104.25			  11.24851			  0.22066			 0.29213
	104.50			  11.38957			  -0.00776			 0.00809
	104.75			  11.33662			  0.10793			 0.01241
	105.00			  11.53536			  0.13247			 0.24250
	105.25			  11.43249			  -0.06254			 0.18280
	105.50			  11.23364			  -0.15053			 -0.11554
	105.75			  11.06160			  0.10645			 0.02594
	106.00			  11.16435			  0.02396			 0.00620
	106.25			  11.31701			  -0.00945			 0.20874
	106.50			  11.32715			  0.12126			 0.38574
	106.75			  11.04053			  0.03412			 0.36915
	107.00			  10.93463			  0.08699			 0.36708
	107.25			  10.73814			  0.14516			 0.56966
	107.50			  10.69443			  0.28581			 0.51975
	107.75			  10.63663			  0.33001			 0.49948
	108.00			  10.62830			  0.50577			 0.26660
	108.25			  10.84405			  0.30104			 0.16176
	108.50			  10.69139			  0.23716			 0.13271
	108.75			  10.54019			  0.25556			 0.13065
	109.00			  10.27633			  0.34609			 0.16994
	109.25			  10.24456			  0.28327			 0.15690
	109.50			  10.26507			  0.29490			 0.18860
	109.75			  10.45784			  0.27523			 -0.06065
	110.00			  10.49490			  0.16694			 -0.22375
	110.25			  10.87413			  0.47130			 0.00153
	110.50			  10.74772			  0.76063			 -0.13388
	110.75			  10.75617			  0.52967			 -0.05462
	111.00			  10.80202			  0.40002			 0.05849
	111.25			  10.94702			  0.45797			 -0.17601
	111.50			  10.76823			  0.63289			 0.00584
	111.75			  10.69353			  0.32134			 0.32527
	112.00			  10.69950			  0.44253			 0.14094
	112.25			  10.67201			  0.34566			 0.22429
	112.50			  10.62694			  0.52163			 0.26556
	112.75			  10.74366			  0.55315			 0.41271
	113.00			  10.63325			  0.40488			 0.62900
	113.25			  10.46336			  0.33741			 0.62325
	113.50			  10.46257			  0.30675			 0.78810
	113.75			  10.47767			  0.35201			 0.81458
	114.00			  10.59934			  0.24943			 0.52996
	114.25			  10.70288			  0.22828			 0.14063
	114.50			  10.69792			  0.36829			 0.16149
	114.75			  10.51631			  0.67096			 0.17048
	115.00			  10.72586			  0.43724			 0.20384
	115.25			  10.50042			  0.50641			 0.37845
	115.50			  10.34844			  0.59101			 0.46792
	115.75			  10.54639			  0.47680			 0.38789
	116.00			  10.67573			  0.45628			 0.39787
	116.25			  10.42764			  0.54046			 0.55567
	116.50			  10.87413			  0.36131			 0.49678
	116.75			  10.88945			  -0.05154			 0.76886
	117.00			  11.05563			  -0.01939			 0.62095
	117.25			  10.96989			  -0.36943			 0.38897
	117.50			  10.95052			  -0.35484			 0.38798
	117.75			  11.03546			  0.04046			 0.45173
	118.00			  10.91480			  0.08488			 0.34231
	118.25			  10.99637			  0.01191			 0.20847
	118.50			  11.12278			  -0.01009			 -0.09401
	118.75			  11.20153			  -0.30196			 0.21634
	119.00			  11.32648			  0.22405			 0.36128
	119.25			  11.21021			  0.47362			 0.24039
	119.50			  11.22575			  0.46495			 0.25563
	119.75			  11.05653			  0.22320			 0.32783
	120.00			  10.94308			  0.43301			 0.02207
	120.25			  10.86996			  0.25937			 0.27662
	120.50			  10.90331			  0.37612			 0.36407
	120.75			  10.75110			  0.24351			 0.26759
	121.00			  10.73364			  0.34778			 0.48064
	121.25			  10.78513			  0.27502			 0.53625
	121.50			  10.70513			  0.46326			 0.42435
	121.75			  10.71572			  0.11597			 0.48532
	122.00			  10.70423			  0.35814			 0.26314
	122.25			  10.69139			  0.52417			 0.05273
	122.50			  10.60182			  0.95247			 0.04878
	122.75			  10.33345			  0.88542			 0.12121
	123.00			  10.24997			  0.75196			 0.23081
	123.25			  10.05608			  0.86681			 0.35979
	123.50			  10.25279			  0.62950			 0.21553
	123.75			  10.11906			  0.36576			 0.31138
	124.00			  10.19657			  0.45713			 0.32172
	124.25			  10.21719			  0.53898			 0.45519
	124.50			  10.03208			  0.61660			 0.56678
	124.75			  10.07061			  0.39706			 0.46648
	125.00			  10.39283			  0.52481			 0.60373
	125.25			  10.26045			  0.20755			 0.52115
	125.50			  10.27070			  0.21347			 0.44791
	125.75			  10.03275			  0.34799			 0.70983
	126.00			  10.13483			  0.26466			 0.66096
	126.25			  10.11793			  0.37929			 0.59888
	126.50			  9.97699			  0.37506			 0.54835
	126.75			  9.94623			  0.52502			 0.66735
	127.00			  9.78501			  0.81161			 0.71721
	127.25			  9.80450			  1.01338			 0.30486
	127.50			  9.91649			  1.16482			 0.13797
	127.75			  9.89283			  1.18534			 0.33372
	128.00			  9.87401			  0.75958			 0.69226
	128.25			  9.89778			  0.59587			 0.37454
	128.50			  9.95321			  0.64515			 0.21732
	128.75			  9.64395			  0.69380			 0.29978
	129.00			  9.52295			  0.65721			 0.13316
	129.25			  9.07162			  0.45163			 0.19377
	129.50			  8.94397			  0.40658			 0.20370
	129.75			  9.00030			  0.33340			 0.01003
	130.00			  9.27576			  0.32620			 0.25846
	130.25			  9.29007			  0.11956			 0.09387
	130.50			  9.54267			  0.15066			 0.37841
	130.75			  9.64677			  0.20184			 0.27635
	131.00			  9.70727			  0.11301			 0.18077
	131.25			  9.71380			  0.28073			 0.28782
	131.50			  9.40634			  0.62612			 0.10358
	131.75			  9.21808			  0.77184			 0.17160
	132.00			  9.42482			  0.64600			 0.12143
	132.25			  9.57545			  0.58403			 0.09580
	132.50			  9.56790			  0.49921			 0.06685
	132.75			  9.53579			  0.58657			 -0.14638
	133.00			  9.58142			  0.61829			 -0.16621
	133.25			  9.60688			  0.73420			 -0.16351
	133.50			  9.63347			  0.54807			 -0.19363
	133.75			  9.46222			  0.48166			 -0.13146
	134.00			  9.59629			  0.57155			 -0.09603
	134.25			  9.77453			  0.51867			 0.15416
	134.50			  9.79909			  0.21411			 -0.02477
	134.75			  9.48701			  0.23801			 -0.20483
	135.00			  9.36297			  0.35095			 -0.15097
	135.25			  9.60328			  0.48103			 -0.25905
	135.50			  9.95265			  0.32663			 -0.06326
	135.75			  9.95535			  0.36174			 -0.11954
	136.00			  10.08210			  0.22109			 -0.23203
	136.25			  10.14283			  0.50196			 -0.20694
	136.50			  10.26191			  0.76381			 0.06532
	136.75			  10.48792			  0.81922			 -0.03624
	137.00			  10.41074			  0.79426			 0.00913
	137.25			  10.47609			  0.09249			 -0.00715
	137.50			  10.35103			  -0.07650			 0.08020
	137.75			  10.33751			  0.05019			 0.19669
	138.00			  10.34731			  0.25598			 0.02994
	138.25			  10.29492			  0.26910			 0.10650
	138.50			  10.15714			  0.29300			 0.21845
	138.75			  9.90702			  0.45205			 0.18226
	139.00			  9.71898			  0.37062			 -0.12795
	139.25			  10.06993			  0.34312			 -0.02769
	139.50			  10.06047			  0.24033			 0.01286
	139.75			  10.09461			  0.08657			 0.04743
	140.00			  10.10565			  -0.18437			 -0.02810
	140.25			  9.90950			  -0.18373			 -0.05894
	140.50			  10.04830			  -0.26410			 -0.38686
	140.75			  9.91750			  -0.33665			 -0.34788
	141.00			  9.70096			  -0.28166			 -0.07805
	141.25			  9.65263			  -0.45911			 0.04469
	141.50			  9.80517			  -0.42823			 0.05080
	141.75			  9.60666			  -0.68098			 0.05476
	142.00			  9.78422			  -0.78546			 0.10034
	142.25			  9.80022			  -1.03419			 0.54448
	142.50			  10.00853			  -0.74697			 0.37031
	142.75			  9.83593			  -0.52383			 0.04631
	143.00			  9.65837			  -0.73407			 0.21328
	143.25			  10.01890			  -0.67654			 0.19368
	143.50			  10.01259			  -0.51537			 0.01331
	143.75			  9.86917			  -0.56381			 -0.02882
	144.00			  9.68147			  -0.34659			 -0.07620
	144.25			  9.61612			  -0.42548			 0.17318
	144.50			  9.84427			  -0.43267			 -0.10075
	144.75			  9.71234			  -0.22202			 -0.26894
	145.00			  9.73836			  0.19634			 -0.10722
	145.25			  9.65432			  0.33805			 -0.26790
	145.50			  9.77971			  0.16610			 -0.47673
	145.75			  9.59224			  -0.02320			 -0.38012
	146.00			  9.39969			  -0.15053			 -0.35692
	146.25			  9.40127			  -0.09321			 -0.15906
	146.50			  9.46898			  -0.27256			 -0.22749
	146.75			  9.65049			  -0.38297			 -0.11433
	147.00			  9.91637			  -0.48513			 -0.36847
	147.25			  9.97901			  -0.16068			 -0.38272
	147.50			  10.05698			  -0.21800			 -0.04766
	147.75			  10.12683			  -0.33665			 -0.17664
	148.00			  10.02138			  -0.21207			 -0.16711
	148.25			  10.10430			  -0.58686			 0.08776
	148.50			  9.95220			  -0.70340			 -0.08475
	148.75			  10.01811			  -0.80111			 0.09891
	149.00			  10.27994			  -0.65856			 -0.16980
	149.25			  10.30563			  -0.73830			 -0.14593
	149.50			  10.34619			  -0.73914			 -0.10376
	149.75			  10.48319			  -0.83326			 -0.03484
	150.00			  10.59270			  -0.86541			 0.11801
	150.25			  10.56430			  -0.72413			 0.01299
	150.50			  10.51958			  -0.57882			 0.00805
	150.75			  10.29211			  -0.70171			 -0.07234
	151.00			  10.24839			  -0.78208			 -0.06415
	151.25			  10.28692			  -1.03462			 -0.05701
	151.50			  10.24355			  -1.06486			 -0.12210
	151.75			  10.31689			  -1.02066			 -0.21863
	152.00			  10.11635			  -1.00691			 -0.32806
	152.25			  10.09652			  -0.69092			 -0.41163
	152.50			  10.30337			  -0.68944			 -0.12817
	152.75			  10.35610			  -0.66871			 0.25262
	153.00			  10.30078			  -0.59553			 0.43856
	153.25			  10.27532			  -0.68013			 0.25109
	153.50			  10.59067			  -0.67527			 0.44220
	153.75			  10.43001			  -0.54710			 0.36847
	154.00			  9.97406			  -0.23640			 0.19381
	154.25			  10.11151			  -0.29985			 -0.05175
	154.50			  9.96989			  -0.41427			 0.17686
	154.75			  10.16097			  -0.48618			 0.19417
	155.00			  10.15883			  -0.23153			 0.40178
	155.25			  9.84799			  -0.21905			 0.14993
	155.50			  9.57511			  0.07367			 0.28364
	155.75			  9.48171			  -0.03399			 0.23131
	156.00			  9.36759			  0.08572			 0.30688
	156.25			  9.27993			  0.05738			 0.21238
	156.50			  9.07624			  0.15023			 -0.10003
	156.75			  9.37975			  -0.01241			 -0.36276
	157.00			  9.46053			  0.26614			 0.08501
	157.25			  9.38347			  0.49921			 -0.10151
	157.50			  9.31813			  0.50429			 0.01200
	157.75			  9.46786			  0.45522			 -0.19067
	158.00			  9.76563			  0.35878			 -0.17358
	158.25			  9.96065			  0.43153			 0.13002
	158.50			  9.86849			  0.58403			 0.05575
	158.75			  9.98656			  0.65277			 -0.02846
	159.00			  10.12773			  0.21009			 0.03021
	159.25			  10.07016			  0.10645			 0.03799
	159.50			  10.02870			  0.23864			 0.24012
	159.75			  10.09359			  0.23864			 0.06955
	160.00			  9.96583			  0.20818			 -0.11680
	160.25			  9.65758			  -0.05154			 0.14207
	160.50			  9.45366			  -0.06444			 0.20114
	160.75			  9.60091			  -0.18669			 -0.03147
	161.00			  9.69228			  -0.19367			 0.19880
	161.25			  9.62953			  -0.25522			 -0.04739
	161.50			  9.69454			  -0.43394			 0.00778
	161.75			  9.80855			  0.12041			 -0.12404
	162.00			  9.71189			  0.23251			 -0.19399
	162.25			  10.05585			  0.02354			 0.06177
	162.50			  10.01045			  -0.00417			 -0.01470
	162.75			  10.00515			  0.05421			 -0.00364
	163.00			  9.97304			  -0.09892			 -0.17426
	163.25			  9.83187			  -0.23894			 -0.09536
	163.50			  9.61702			  0.07388			 0.22587
	163.75			  9.53365			  0.10751			 0.21638
	164.00			  9.49636			  0.11851			 0.18397
	164.25			  9.50222			  -0.17591			 0.37373
	164.50			  9.56171			  -0.10400			 0.29060
	164.75			  9.68530			  -0.49168			 0.00517
	165.00			  9.97124			  -0.69113			 -0.15164
	165.25			  10.20581			  -0.51706			 -0.07580