--------------TurbSim v2.00.* User Time Series Input File-----------------------
     Time series input from low-res turbsim run
--------------------------------------------------------------------------------
          3 nComp - Number of velocity components in the file
          1 nPoints - Number of time series points contained in this file (-)
          1 RefPtID - Index of the reference point (1-nPoints)
     Pointyi Pointzi ! nPoints listed in order of increasing height
       (m)     (m)
       2.42341   94.00000
--------Time Series-------------------------------------------------------------
Elapsed Time         Point01u             Point01v           Point01w
         (s)            (m/s)                (m/s)              (m/s)
	0.00			  10.25276			  -0.14938			 -0.10502
	0.25			  10.21454			  -0.07992			 -0.00993
	0.50			  10.26649			  -0.05355			 -0.02829
	0.75			  10.30988			  -0.11930			 -0.02303
	1.00			  10.34388			  -0.19096			 -0.04593
	1.25			  10.29730			  -0.29220			 -0.11229
	1.50			  10.33509			  -0.17068			 -0.12000
	1.75			  10.35711			  0.00949			 -0.18081
	2.00			  10.37818			  0.13641			 -0.20087
	2.25			  10.33124			  0.08301			 -0.12608
	2.50			  10.26061			  0.08165			 -0.00882
	2.75			  10.40681			  0.13472			 -0.02031
	3.00			  10.37978			  0.15686			 -0.04737
	3.25			  10.32412			  0.08334			 -0.04815
	3.50			  10.28975			  0.09061			 0.12403
	3.75			  10.27202			  0.03399			 0.21312
	4.00			  10.23082			  -0.01739			 0.19180
	4.25			  10.09937			  0.08149			 0.19104
	4.50			  10.01922			  0.11072			 0.33313
	4.75			  10.03906			  0.10515			 0.20467
	5.00			  9.97235			  0.24999			 0.14079
	5.25			  9.91560			  0.31692			 0.16475
	5.50			  9.84802			  0.29900			 0.09684
	5.75			  9.91400			  0.40294			 0.17080
	6.00			  10.04254			  0.32182			 0.09698
	6.25			  10.02743			  0.28886			 0.05868
	6.50			  9.99197			  0.25286			 0.06840
	6.75			  9.97540			  0.20283			 0.13737
	7.00			  10.07175			  0.14537			 0.13934
	7.25			  10.11143			  0.24390			 0.11301
	7.50			  10.00527			  0.30238			 0.05313
	7.75			  10.06383			  0.21095			 0.08852
	8.00			  10.08033			  0.21112			 0.04261
	8.25			  9.92163			  0.31455			 0.00855
	8.50			  10.02721			  0.44655			 0.09980
	8.75			  9.96988			  0.37387			 0.14665
	9.00			  9.98042			  0.36120			 0.09005
	9.25			  10.01609			  0.28971			 0.05698
	9.50			  10.02103			  0.34041			 0.00326
	9.75			  9.97039			  0.27331			 -0.01436
	10.00			  10.02212			  0.21348			 -0.00382
	10.25			  10.00069			  0.27247			 -0.01050
	10.50			  10.13287			  0.34125			 0.01571
	10.75			  10.09493			  0.23596			 0.09079
	11.00			  10.02903			  0.11258			 -0.05472
	11.25			  9.98906			  0.14098			 0.04060
	11.50			  9.90950			  0.16734			 0.11446
	11.75			  9.93108			  0.13540			 0.09898
	12.00			  10.07757			  0.03535			 0.12221
	12.25			  9.94961			  -0.01654			 0.12821
	12.50			  9.84068			  -0.03479			 0.08682
	12.75			  9.89242			  0.05191			 0.10927
	13.00			  9.89801			  0.04109			 0.09341
	13.25			  9.89598			  0.06594			 -0.00002
	13.50			  9.91204			  0.08672			 -0.13837
	13.75			  9.89692			  0.01118			 -0.06733
	14.00			  9.89831			  -0.06860			 -0.04351
	14.25			  9.92003			  -0.09936			 -0.06768
	14.50			  9.97722			  -0.20651			 -0.02052
	14.75			  9.97758			  -0.14398			 0.06964
	15.00			  9.94307			  -0.17203			 0.05439
	15.25			  9.91553			  -0.17964			 -0.01474
	15.50			  9.83545			  -0.14955			 -0.06842
	15.75			  9.92628			  -0.23727			 -0.10469
	16.00			  9.84526			  -0.12927			 -0.12567
	16.25			  9.74462			  -0.02330			 -0.00476
	16.50			  9.73249			  0.01118			 0.01871
	16.75			  9.69688			  -0.02009			 0.08856
	17.00			  9.71730			  -0.05186			 0.03511
	17.25			  9.76547			  -0.08448			 0.04994
	17.50			  9.68024			  -0.03479			 0.03033
	17.75			  9.78241			  -0.00809			 -0.04979
	18.00			  9.76722			  0.00695			 -0.05233
	18.25			  9.73299			  -0.05609			 -0.10895
	18.50			  9.84359			  -0.07400			 -0.08007
	18.75			  9.91386			  -0.16121			 -0.09929
	19.00			  9.89852			  -0.25214			 -0.08131
	19.25			  9.87040			  -0.26769			 -0.06455
	19.50			  9.94357			  -0.31214			 -0.00311
	19.75			  9.90441			  -0.30403			 0.01139
	20.00			  9.86277			  -0.26600			 -0.02247
	20.25			  9.85173			  -0.30234			 0.01027
	20.50			  9.88704			  -0.34375			 0.05927
	20.75			  9.97577			  -0.34679			 0.06008
	21.00			  9.96988			  -0.40780			 -0.00560
	21.25			  9.87847			  -0.36927			 0.00828
	21.50			  9.75828			  -0.30234			 -0.10473
	21.75			  9.74934			  -0.32600			 -0.14265
	22.00			  9.80668			  -0.33530			 -0.11115
	22.25			  9.77667			  -0.34865			 -0.16996
	22.50			  9.78197			  -0.31603			 -0.20734
	22.75			  9.76642			  -0.33597			 -0.22157
	23.00			  9.75741			  -0.40848			 -0.11348
	23.25			  9.83538			  -0.40020			 -0.12755
	23.50			  9.81663			  -0.34189			 -0.07583
	23.75			  9.78480			  -0.34831			 -0.00980
	24.00			  9.80631			  -0.35744			 0.06832
	24.25			  9.68358			  -0.46087			 0.11710
	24.50			  9.73917			  -0.41507			 0.09938
	24.75			  9.61557			  -0.28071			 0.21165
	25.00			  9.58490			  -0.15226			 0.19268
	25.25			  9.50897			  -0.32042			 0.19875
	25.50			  9.51297			  -0.37856			 0.21112
	25.75			  9.44103			  -0.28510			 0.17884
	26.00			  9.37185			  -0.23710			 0.16101
	26.25			  9.34511			  -0.35693			 0.14959
	26.50			  9.15015			  -0.43146			 0.19020
	26.75			  9.19252			  -0.39056			 0.19894
	27.00			  9.22812			  -0.31011			 0.28446
	27.25			  9.24861			  -0.28003			 0.22874
	27.50			  9.29701			  -0.30690			 0.25684
	27.75			  9.32825			  -0.40358			 0.14029
	28.00			  9.33407			  -0.40307			 0.14489
	28.25			  9.33247			  -0.36656			 0.20325
	28.50			  9.38958			  -0.38194			 0.11803
	28.75			  9.38610			  -0.25366			 0.06909
	29.00			  9.36728			  -0.21564			 0.11792
	29.25			  9.32310			  -0.29947			 0.02033
	29.50			  9.37607			  -0.41879			 -0.04105
	29.75			  9.43275			  -0.40679			 0.04003
	30.00			  9.63730			  -0.36808			 0.15110
	30.25			  9.73852			  -0.26786			 0.21515
	30.50			  9.71018			  -0.23220			 0.15599
	30.75			  9.76925			  -0.18285			 0.18506
	31.00			  9.76322			  -0.00826			 0.17931
	31.25			  9.78677			  0.03180			 0.14600
	31.50			  9.65197			  0.00830			 0.17124
	31.75			  9.64122			  -0.11507			 0.18269
	32.00			  9.75276			  -0.12657			 0.11376
	32.25			  9.59849			  -0.09412			 0.10981
	32.50			  9.66818			  -0.08178			 0.09238
	32.75			  9.62560			  -0.10189			 0.16517
	33.00			  9.62799			  -0.13282			 0.12491
	33.25			  9.71497			  -0.20397			 0.07338
	33.50			  9.77434			  -0.15699			 0.09068
	33.75			  9.73546			  -0.08043			 0.25340
	34.00			  9.82855			  -0.08398			 0.23588
	34.25			  9.89213			  -0.07755			 0.22194
	34.50			  9.81089			  -0.06910			 0.27314
	34.75			  9.81932			  0.00628			 0.16946
	35.00			  9.79243			  0.04785			 0.16591
	35.25			  9.77601			  -0.03970			 0.03579
	35.50			  9.76736			  -0.09226			 0.08445
	35.75			  9.71526			  0.07067			 0.15509
	36.00			  9.74716			  0.15061			 0.10542
	36.25			  9.75131			  0.18137			 0.09679
	36.50			  9.82244			  0.17292			 0.11481
	36.75			  9.83429			  0.10684			 0.14337
	37.00			  9.81343			  0.05884			 0.15026
	37.25			  9.85965			  0.02977			 0.17049
	37.50			  9.85732			  0.02520			 0.05880
	37.75			  9.84722			  0.07422			 -0.04044
	38.00			  9.92664			  0.08064			 0.04564
	38.25			  9.97656			  0.15788			 0.01880
	38.50			  9.92018			  0.11478			 -0.02325
	38.75			  9.87287			  0.16447			 -0.11327
	39.00			  9.80856			  0.14284			 -0.08868
	39.25			  9.87440			  0.00256			 -0.02799
	39.50			  9.99662			  -0.02296			 -0.06298
	39.75			  9.88370			  -0.00927			 -0.04784
	40.00			  9.89155			  -0.00184			 0.07182
	40.25			  9.92919			  -0.02567			 0.07113
	40.50			  9.78044			  -0.08753			 0.04310
	40.75			  9.72057			  -0.17288			 0.05477
	41.00			  9.77281			  -0.24876			 -0.01386
	41.25			  9.69267			  -0.20820			 0.01561
	41.50			  9.60583			  -0.18403			 0.01684
	41.75			  9.63061			  -0.10967			 0.00340
	42.00			  9.62182			  -0.13569			 0.05080
	42.25			  9.49865			  -0.16240			 0.01344
	42.50			  9.54414			  -0.15023			 0.07932
	42.75			  9.59152			  -0.11609			 0.10314
	43.00			  9.62320			  -0.10307			 0.03306
	43.25			  9.67588			  -0.07941			 -0.00098
	43.50			  9.59355			  -0.05068			 -0.04187
	43.75			  9.67464			  -0.02601			 -0.06647
	44.00			  9.58919			  0.06458			 -0.06039
	44.25			  9.64500			  0.14486			 -0.08408
	44.50			  9.64354			  0.21078			 -0.04765
	44.75			  9.58825			  0.30728			 -0.01879
	45.00			  9.71061			  0.32571			 -0.18235
	45.25			  9.55933			  0.29562			 -0.04624
	45.50			  9.59326			  0.22481			 -0.04893
	45.75			  9.65481			  0.29731			 -0.07547
	46.00			  9.74825			  0.28126			 0.00838
	46.25			  9.70865			  0.19878			 -0.05000
	46.50			  9.66709			  0.15568			 -0.04675
	46.75			  9.59886			  0.26097			 -0.05365
	47.00			  9.58222			  0.28295			 -0.10790
	47.25			  9.64427			  0.18847			 -0.12543
	47.50			  9.67850			  0.26047			 -0.03104
	47.75			  9.64485			  0.24881			 0.01493
	48.00			  9.60787			  0.16075			 -0.01575
	48.25			  9.58098			  0.12374			 0.00742
	48.50			  9.56805			  0.13709			 -0.00392
	48.75			  9.60431			  0.18289			 -0.04534
	49.00			  9.74825			  0.14622			 0.16832
	49.25			  9.63468			  0.12560			 0.15822
	49.50			  9.57430			  0.12424			 0.10637
	49.75			  9.61760			  0.10177			 0.13783
	50.00			  9.70197			  0.13371			 0.07659
	50.25			  9.72478			  0.09517			 -0.06277
	50.50			  9.78786			  0.12712			 -0.01212
	50.75			  9.70916			  0.17444			 0.02191
	51.00			  9.81707			  0.15957			 0.03810
	51.25			  9.80827			  0.13286			 -0.04082
	51.50			  9.76431			  0.16616			 0.02226
	51.75			  9.76112			  0.20672			 -0.00027
	52.00			  9.88653			  0.22920			 0.02529
	52.25			  9.98826			  0.32824			 0.10223
	52.50			  10.05664			  0.33754			 0.15142
	52.75			  10.09392			  0.27923			 0.12284
	53.00			  10.08309			  0.30035			 0.02398
	53.25			  10.05286			  0.19236			 0.00553
	53.50			  10.04044			  0.11546			 0.06765
	53.75			  10.09101			  0.09737			 0.04956
	54.00			  10.06478			  0.06695			 0.11307
	54.25			  9.99553			  0.01422			 0.04154
	54.50			  10.08193			  -0.17474			 0.02020
	54.75			  10.02227			  -0.09040			 0.01699
	55.00			  10.03288			  -0.08753			 -0.00764
	55.25			  10.08861			  -0.00082			 0.04391
	55.50			  9.96000			  -0.02009			 0.04702
	55.75			  9.90572			  0.01270			 0.12374
	56.00			  9.96254			  -0.03260			 0.09241
	56.25			  9.91313			  -0.14043			 0.06126
	56.50			  9.81351			  -0.09615			 0.14327
	56.75			  9.89046			  0.00120			 0.20400
	57.00			  9.87273			  -0.01265			 0.17006
	57.25			  9.78553			  -0.12606			 0.20596
	57.50			  9.68300			  -0.14313			 0.27715
	57.75			  9.60176			  0.00442			 0.22160
	58.00			  9.53019			  -0.08938			 0.23638
	58.25			  9.59304			  -0.07840			 0.29743
	58.50			  9.53876			  0.00222			 0.22213
	58.75			  9.70022			  -0.07705			 0.23191
	59.00			  9.78684			  -0.12657			 0.26419
	59.25			  9.87033			  -0.07874			 0.23580
	59.50			  9.87861			  -0.14888			 0.24287
	59.75			  9.84860			  -0.21969			 0.20822
	60.00			  9.80936			  -0.31687			 0.07741
	60.25			  9.83879			  -0.37839			 0.00256
	60.50			  9.84889			  -0.23676			 0.07665
	60.75			  9.88588			  -0.14347			 0.07159
	61.00			  9.90797			  -0.13586			 0.00763
	61.25			  9.89155			  -0.17575			 0.07432
	61.50			  9.83196			  -0.18268			 0.16274
	61.75			  9.72718			  -0.23135			 0.07134
	62.00			  9.76678			  -0.14347			 0.12584
	62.25			  9.78655			  -0.03547			 0.08379
	62.50			  9.79556			  -0.13891			 -0.00886
	62.75			  9.67937			  -0.03463			 0.00529
	63.00			  9.63490			  -0.03091			 0.11091
	63.25			  9.62291			  -0.15885			 0.13082
	63.50			  9.59806			  -0.13079			 0.15347
	63.75			  9.62538			  -0.19113			 0.13071
	64.00			  9.74913			  0.04684			 0.24151
	64.25			  9.73016			  0.05275			 0.29204
	64.50			  9.68932			  0.12475			 0.16547
	64.75			  9.63068			  0.03450			 0.21641
	65.00			  9.69114			  0.00492			 0.12050
	65.25			  9.60590			  0.06526			 0.09282
	65.50			  9.66142			  -0.01468			 0.10396
	65.75			  9.61346			  -0.21259			 0.10900
	66.00			  9.62240			  -0.20043			 -0.03919
	66.25			  9.64195			  -0.16206			 0.06093
	66.50			  9.70073			  -0.15581			 0.14050
	66.75			  9.77151			  -0.24014			 0.10156
	67.00			  9.87055			  -0.28696			 0.05861
	67.25			  9.90237			  -0.24673			 -0.02755
	67.50			  9.84737			  -0.14550			 0.00998
	67.75			  9.90608			  -0.10493			 -0.01764
	68.00			  9.87643			  -0.00167			 -0.02369
	68.25			  9.91131			  0.03027			 0.01645
	68.50			  9.99255			  -0.00471			 0.03743
	68.75			  10.05904			  0.12103			 0.04858
	69.00			  10.09421			  0.02689			 0.03591
	69.25			  10.05192			  -0.04764			 0.05704
	69.50			  9.94205			  0.01692			 0.02535
	69.75			  9.90078			  0.04126			 0.00296
	70.00			  9.83436			  -0.01941			 0.06099
	70.25			  9.74397			  -0.08516			 0.12966
	70.50			  9.71810			  -0.10274			 0.18258
	70.75			  9.82571			  -0.08009			 0.25965
	71.00			  9.74724			  -0.04696			 0.24115
	71.25			  9.75908			  -0.04578			 0.33897
	71.50			  9.83363			  -0.03986			 0.20827
	71.75			  9.87004			  -0.12167			 0.00074
	72.00			  9.86423			  -0.04223			 0.14642
	72.25			  9.81976			  0.07456			 0.15870
	72.50			  9.70422			  0.21179			 0.18640
	72.75			  9.69121			  0.16734			 0.16429
	73.00			  9.76809			  0.18864			 0.05068
	73.25			  9.73227			  0.17630			 -0.06602
	73.50			  9.78182			  0.04092			 -0.11086
	73.75			  9.74447			  0.01675			 -0.09032
	74.00			  9.83974			  0.04582			 -0.10958
	74.25			  9.81976			  0.14537			 -0.03923
	74.50			  9.82462			  0.19945			 -0.05888
	74.75			  9.81183			  0.16903			 -0.05021
	75.00			  9.84453			  0.02554			 -0.08028
	75.25			  9.83967			  -0.08161			 -0.11426
	75.50			  9.89504			  -0.01181			 -0.04376
	75.75			  9.90383			  -0.00910			 -0.02173
	76.00			  9.95477			  -0.00809			 -0.07508
	76.25			  9.89627			  0.03670			 -0.05494
	76.50			  9.81372			  0.03230			 -0.08438
	76.75			  9.80965			  0.05022			 -0.17489
	77.00			  9.94757			  -0.06048			 -0.23941
	77.25			  9.97874			  -0.13147			 -0.15546
	77.50			  9.92185			  -0.13671			 -0.10458
	77.75			  10.01442			  -0.19468			 -0.10009
	78.00			  10.00069			  -0.23152			 -0.09171
	78.25			  9.90804			  -0.21716			 -0.30514
	78.50			  9.87919			  -0.18082			 -0.20992
	78.75			  10.01856			  -0.09260			 -0.20856
	79.00			  10.08294			  0.02858			 -0.16183
	79.25			  10.12146			  0.03957			 -0.16731
	79.50			  10.14929			  -0.03547			 -0.15725
	79.75			  10.05708			  -0.02787			 -0.18627
	80.00			  10.05402			  -0.07333			 -0.07518
	80.25			  10.00679			  -0.06386			 -0.06140
	80.50			  9.99974			  -0.13688			 -0.10374
	80.75			  9.97482			  -0.06589			 -0.07127
	81.00			  10.01965			  -0.07874			 -0.03425
	81.25			  10.15793			  -0.02905			 -0.01648
	81.50			  10.10264			  -0.07367			 0.07571
	81.75			  10.03005			  -0.14583			 0.13869
	82.00			  10.04923			  -0.19874			 0.24758
	82.25			  10.07096			  -0.19671			 0.22343
	82.50			  9.98579			  -0.16476			 0.17649
	82.75			  10.04908			  -0.08415			 0.15249
	83.00			  10.06333			  -0.14888			 0.11032
	83.25			  9.97838			  -0.11964			 0.11212
	83.50			  9.98063			  -0.13552			 0.02331
	83.75			  10.02961			  -0.21361			 0.03934
	84.00			  9.97947			  -0.30437			 0.04118
	84.25			  9.99241			  -0.13891			 -0.02030
	84.50			  10.01275			  -0.04291			 0.14102
	84.75			  10.14231			  -0.11153			 0.15558
	85.00			  10.13948			  -0.09564			 0.03112
	85.25			  10.14427			  -0.11254			 0.01771
	85.50			  10.15030			  -0.17000			 0.18164
	85.75			  10.16549			  -0.16257			 0.28317
	86.00			  10.20582			  -0.28527			 0.30909
	86.25			  10.22784			  -0.23186			 0.30800
	86.50			  10.15721			  -0.21107			 0.29609
	86.75			  10.10256			  -0.22037			 0.36054
	87.00			  10.04916			  -0.13992			 0.24523
	87.25			  10.16469			  -0.17507			 0.18164
	87.50			  10.24128			  -0.16865			 0.09637
	87.75			  10.25109			  -0.23896			 0.21515
	88.00			  10.24920			  -0.31924			 0.09532
	88.25			  10.24077			  -0.25789			 0.14488
	88.50			  10.12502			  -0.37991			 0.02693
	88.75			  10.19318			  -0.38245			 0.06055
	89.00			  10.29338			  -0.41169			 0.12832
	89.25			  10.30377			  -0.32380			 0.13031
	89.50			  10.23939			  -0.37518			 0.12168
	89.75			  10.20604			  -0.37130			 0.08463
	90.00			  10.13875			  -0.41101			 0.10713
	90.25			  10.04712			  -0.35355			 0.03627
	90.50			  10.10089			  -0.46222			 0.02818
	90.75			  10.14391			  -0.48132			 0.08369
	91.00			  10.03593			  -0.51580			 -0.02610
	91.25			  10.01123			  -0.46510			 0.10954
	91.50			  9.96755			  -0.37975			 0.11969
	91.75			  9.94902			  -0.29186			 0.04862
	92.00			  9.93028			  -0.12454			 0.11009
	92.25			  9.96341			  -0.11102			 0.07021
	92.50			  9.94917			  -0.04172			 0.07105
	92.75			  10.06202			  -0.07350			 0.12848
	93.00			  10.01464			  -0.09175			 0.15230
	93.25			  9.97337			  -0.15158			 0.20411
	93.50			  10.08818			  -0.08212			 0.11939
	93.75			  10.09072			  -0.25180			 0.11490
	94.00			  10.07938			  -0.33225			 0.18363
	94.25			  10.10758			  -0.18674			 0.13674
	94.50			  10.14900			  -0.09124			 0.02352
	94.75			  10.09552			  -0.03648			 0.04167
	95.00			  10.08047			  -0.01130			 0.00676
	95.25			  10.09225			  -0.07671			 0.07130
	95.50			  9.98230			  -0.12167			 0.08816
	95.75			  9.91000			  -0.13417			 0.05733
	96.00			  9.86103			  -0.18775			 0.01313
	96.25			  9.94902			  -0.16882			 0.01913
	96.50			  10.00803			  -0.17237			 0.15675
	96.75			  10.00272			  -0.14668			 0.13667
	97.00			  10.01951			  -0.27614			 0.01647
	97.25			  10.07364			  -0.42098			 0.05880
	97.50			  10.06769			  -0.34223			 0.04627
	97.75			  9.95636			  -0.38634			 0.10438
	98.00			  10.03855			  -0.46358			 0.27248
	98.25			  10.19659			  -0.35659			 0.23113
	98.50			  10.22348			  -0.25569			 0.16996
	98.75			  10.19586			  -0.11051			 0.08121
	99.00			  10.11208			  -0.15564			 0.10792
	99.25			  10.14885			  -0.09902			 0.16400
	99.50			  10.25683			  -0.04426			 0.05946
	99.75			  10.17196			  -0.03226			 -0.00466
	100.00			  10.11499			  0.07422			 -0.02499
	100.25			  10.20088			  0.13861			 -0.09673
	100.50			  10.19892			  0.21247			 0.01569
	100.75			  10.22326			  0.21855			 0.02189
	101.00			  10.21345			  0.21365			 -0.10708
	101.25			  10.21607			  0.31218			 -0.19385
	101.50			  10.24971			  0.29985			 -0.13371
	101.75			  10.31198			  0.17985			 -0.07277
	102.00			  10.29665			  0.19016			 -0.01121
	102.25			  10.27601			  0.28328			 -0.03702
	102.50			  10.26446			  0.21669			 -0.02642
	102.75			  10.22428			  0.14689			 0.02709
	103.00			  10.24440			  0.15281			 0.02304
	103.25			  10.37753			  0.05816			 -0.05281
	103.50			  10.37796			  0.11563			 -0.00105
	103.75			  10.36437			  0.08875			 0.01579
	104.00			  10.26642			  0.08419			 -0.02377
	104.25			  10.36750			  0.13033			 -0.08245
	104.50			  10.36503			  0.02791			 0.03022
	104.75			  10.21759			  0.10278			 0.08401
	105.00			  10.19957			  -0.01705			 0.16473
	105.25			  10.07517			  -0.01772			 0.13292
	105.50			  10.11201			  -0.01147			 0.08556
	105.75			  10.34861			  -0.00978			 0.08006
	106.00			  10.28292			  0.04785			 0.13199
	106.25			  10.18773			  0.05106			 0.11444
	106.50			  10.10278			  -0.00015			 0.12966
	106.75			  10.13962			  0.06289			 0.02426
	107.00			  10.10860			  0.07168			 -0.04855
	107.25			  10.13323			  0.06796			 0.05236
	107.50			  10.26061			  -0.03513			 -0.01947
	107.75			  10.28611			  -0.03868			 -0.09769
	108.00			  10.34846			  -0.07248			 -0.01419
	108.25			  10.23191			  -0.20634			 0.10962
	108.50			  10.14812			  -0.13536			 -0.07726
	108.75			  10.24528			  -0.20127			 -0.08180
	109.00			  10.27311			  -0.23879			 -0.13310
	109.25			  10.25225			  -0.22527			 -0.10076
	109.50			  10.21091			  -0.32211			 -0.13688
	109.75			  10.25618			  -0.21175			 -0.10508
	110.00			  10.22558			  -0.22780			 -0.04645
	110.25			  10.22101			  -0.25299			 -0.07489
	110.50			  10.28284			  -0.22595			 0.02909
	110.75			  10.30043			  -0.29372			 0.13762
	111.00			  10.20219			  0.06475			 0.14434
	111.25			  10.20727			  0.14115			 0.20385
	111.50			  10.20647			  0.13117			 0.20658
	111.75			  10.27696			  0.08943			 0.05740
	112.00			  10.29752			  0.05681			 0.09255
	112.25			  10.21628			  -0.00234			 0.15707
	112.50			  10.15299			  -0.00877			 0.18140
	112.75			  10.14987			  -0.03243			 0.23307
	113.00			  10.17995			  0.03585			 0.07004
	113.25			  10.19775			  0.03619			 -0.00666
	113.50			  10.28459			  -0.10595			 -0.04309
	113.75			  10.25378			  -0.00251			 -0.06558
	114.00			  10.19964			  0.04887			 0.00786
	114.25			  10.20836			  0.14131			 -0.05120
	114.50			  10.19005			  -0.00336			 -0.03251
	114.75			  10.15946			  -0.00133			 -0.06407
	115.00			  10.16985			  0.11917			 -0.15780
	115.25			  10.14892			  0.01827			 -0.12390
	115.50			  10.20262			  0.13320			 0.12428
	115.75			  10.21207			  0.20723			 0.07949
	116.00			  10.15285			  0.09687			 0.08144
	116.25			  10.27907			  0.06509			 -0.04341
	116.50			  10.29251			  0.16633			 0.09217
	116.75			  10.29745			  0.16937			 0.18857
	117.00			  10.37527			  0.28075			 0.14772
	117.25			  10.29396			  0.37185			 0.11093
	117.50			  10.25269			  0.39247			 0.06496
	117.75			  10.22130			  0.25388			 0.07187
	118.00			  10.19572			  0.23968			 -0.03719
	118.25			  10.28437			  0.32435			 0.02703
	118.50			  10.27267			  0.29055			 -0.02612
	118.75			  10.32455			  0.13337			 -0.02136
	119.00			  10.44612			  0.14064			 -0.04026
	119.25			  10.45484			  0.11968			 -0.08992
	119.50			  10.43529			  0.12019			 -0.09397
	119.75			  10.37513			  0.12644			 -0.04103
	120.00			  10.24695			  0.07844			 -0.05578
	120.25			  10.26846			  0.01912			 0.03570
	120.50			  10.32499			  -0.02550			 0.10874
	120.75			  10.32325			  -0.13907			 0.15532
	121.00			  10.36801			  -0.00572			 0.15368
	121.25			  10.37600			  -0.02803			 0.09646
	121.50			  10.34403			  -0.06674			 0.10633
	121.75			  10.40746			  -0.06184			 0.03259
	122.00			  10.41945			  -0.02094			 0.07220
	122.25			  10.27369			  -0.02313			 0.06042
	122.50			  10.33502			  0.03923			 0.08400
	122.75			  10.36837			  0.11005			 0.03110
	123.00			  10.46262			  -0.01468			 0.06466
	123.25			  10.40579			  -0.06572			 -0.02652
	123.50			  10.43813			  -0.13400			 -0.12272
	123.75			  10.39387			  -0.19603			 -0.05214
	124.00			  10.34301			  -0.15817			 -0.05170
	124.25			  10.31903			  -0.13891			 0.10232
	124.50			  10.23627			  -0.16578			 0.20629
	124.75			  10.21541			  -0.05778			 0.16515
	125.00			  10.20771			  -0.00268			 0.23168
	125.25			  10.28924			  -0.07654			 0.15457
	125.50			  10.25211			  0.08233			 0.18714
	125.75			  10.23568			  0.10025			 0.15818
	126.00			  10.15248			  0.01692			 0.10228
	126.25			  10.22224			  0.02368			 0.03883
	126.50			  10.23786			  -0.01519			 -0.02738
	126.75			  10.25385			  0.06256			 -0.01354
	127.00			  10.29389			  0.15416			 -0.02058
	127.25			  10.17094			  0.20334			 -0.00495
	127.50			  10.17959			  0.12729			 0.03302
	127.75			  10.13977			  0.18154			 -0.02705
	128.00			  10.09879			  0.16396			 -0.06031
	128.25			  10.07146			  0.05039			 -0.05643
	128.50			  10.23336			  -0.02787			 -0.08893
	128.75			  10.23169			  -0.13417			 0.05360
	129.00			  10.23060			  -0.12217			 -0.02595
	129.25			  10.11949			  -0.04274			 0.01453
	129.50			  10.13715			  0.11377			 -0.00008
	129.75			  10.15721			  0.22751			 -0.13741
	130.00			  10.09457			  0.18424			 -0.16063
	130.25			  10.16564			  0.04481			 -0.26834
	130.50			  10.16862			  0.12982			 -0.24331
	130.75			  10.07255			  0.06103			 -0.18926
	131.00			  10.09755			  -0.04308			 -0.10141
	131.25			  10.18061			  -0.01756			 0.03077
	131.50			  10.07255			  -0.04950			 0.05362
	131.75			  10.03956			  -0.14110			 -0.00401
	132.00			  10.06580			  -0.08668			 -0.05578
	132.25			  10.22864			  0.03416			 -0.06281
	132.50			  10.13250			  -0.10460			 -0.16912
	132.75			  10.22064			  0.02149			 -0.16000
	133.00			  10.20960			  0.03585			 -0.18400
	133.25			  10.16309			  -0.01401			 -0.20122
	133.50			  10.29040			  0.01895			 -0.21712
	133.75			  10.24208			  0.11106			 -0.20414
	134.00			  10.33930			  0.05732			 -0.29877
	134.25			  10.49858			  -0.04781			 -0.24864
	134.50			  10.54858			  -0.10865			 -0.06275
	134.75			  10.52017			  -0.01925			 -0.17405
	135.00			  10.55301			  -0.05693			 -0.24621
	135.25			  10.50861			  -0.00572			 -0.28834
	135.50			  10.49764			  -0.03378			 -0.26397
	135.75			  10.40485			  -0.04899			 -0.15164
	136.00			  10.40318			  -0.04798			 -0.12957
	136.25			  10.41255			  -0.08262			 -0.07274
	136.50			  10.56703			  -0.12623			 0.06193
	136.75			  10.52627			  -0.18116			 -0.00481
	137.00			  10.44997			  -0.16459			 -0.05498
	137.25			  10.41306			  -0.10747			 0.02873
	137.50			  10.55751			  -0.12775			 0.12510
	137.75			  10.51973			  -0.04578			 0.06275
	138.00			  10.46698			  0.03213			 -0.00012
	138.25			  10.45818			  0.04785			 -0.09328
	138.50			  10.43682			  0.11072			 -0.00403
	138.75			  10.44132			  0.12070			 0.08251
	139.00			  10.42628			  0.01050			 0.10417
	139.25			  10.35253			  -0.08060			 0.00311
	139.50			  10.32572			  0.10802			 -0.03730
	139.75			  10.30014			  0.18036			 -0.05174
	140.00			  10.26083			  0.21467			 -0.04674
	140.25			  10.26221			  0.12103			 -0.00130
	140.50			  10.19855			  0.12813			 0.02430
	140.75			  10.20444			  0.02064			 0.11376
	141.00			  10.08919			  -0.00184			 -0.00502
	141.25			  10.06972			  -0.11440			 -0.04662
	141.50			  10.00846			  -0.07215			 0.03570
	141.75			  9.95128			  -0.09327			 0.14459
	142.00			  9.96893			  0.03551			 0.20463
	142.25			  9.96516			  0.03044			 0.12032
	142.50			  10.07771			  0.06188			 0.03073
	142.75			  10.13730			  0.04599			 0.02350
	143.00			  10.08076			  0.07709			 -0.05036
	143.25			  9.95542			  0.06982			 -0.18142
	143.50			  10.01253			  -0.02110			 -0.07234
	143.75			  9.99800			  -0.10054			 -0.17493
	144.00			  10.09988			  0.00712			 -0.10634
	144.25			  10.02743			  0.03484			 -0.10259
	144.50			  10.11775			  -0.03851			 -0.20435
	144.75			  10.11971			  0.04042			 -0.24745
	145.00			  10.03615			  0.07337			 -0.11475
	145.25			  10.08542			  0.15991			 -0.09765
	145.50			  10.22399			  0.17410			 -0.24138
	145.75			  10.22202			  0.03670			 -0.11962
	146.00			  10.24063			  0.11951			 -0.13701
	146.25			  10.21229			  0.11698			 -0.10786
	146.50			  10.34359			  0.03399			 -0.02994
	146.75			  10.37774			  0.13827			 0.10276
	147.00			  10.40252			  0.19658			 -0.01398
	147.25			  10.53172			  0.35055			 -0.11367
	147.50			  10.47119			  0.28852			 -0.13045
	147.75			  10.43958			  0.15382			 -0.10452
	148.00			  10.43064			  0.13827			 -0.12109
	148.25			  10.46966			  0.16227			 -0.10231
	148.50			  10.46371			  0.18188			 -0.03423
	148.75			  10.41517			  0.12729			 -0.06147
	149.00			  10.46589			  0.11005			 -0.11286
	149.25			  10.42352			  0.18323			 -0.14249
	149.50			  10.50600			  0.15974			 -0.09942
	149.75			  10.45135			  0.06323			 -0.17424
	150.00			  10.33589			  0.17748			 -0.10133
	150.25			  10.32477			  0.08453			 -0.07881
	150.50			  10.38966			  0.07709			 -0.00760
	150.75			  10.40339			  -0.06353			 -0.02862
	151.00			  10.31721			  0.11867			 -0.07155
	151.25			  10.24586			  0.03602			 -0.08169
	151.50			  10.16324			  -0.02601			 -0.07585
	151.75			  10.15270			  0.04363			 -0.08803
	152.00			  10.16731			  0.09095			 -0.04467
	152.25			  10.17915			  0.07219			 -0.00466
	152.50			  10.19972			  -0.00251			 -0.04532
	152.75			  10.24179			  0.13185			 -0.04267
	153.00			  10.26032			  0.24999			 -0.03085
	153.25			  10.23830			  0.16126			 -0.00481
	153.50			  10.22994			  0.09568			 0.01084
	153.75			  10.32077			  -0.03446			 -0.08144
	154.00			  10.51094			  -0.00927			 -0.11096
	154.25			  10.51653			  0.01912			 -0.07518
	154.50			  10.40020			  0.01050			 0.06710
	154.75			  10.22944			  0.05968			 0.05093
	155.00			  10.15990			  0.07794			 -0.06004
	155.25			  10.14057			  -0.00961			 -0.11325
	155.50			  10.22580			  0.06137			 -0.14818
	155.75			  10.26628			  0.15923			 -0.07713
	156.00			  10.23002			  0.14182			 0.00819
	156.25			  10.24993			  0.19320			 -0.07052
	156.50			  10.24615			  0.03382			 -0.04393
	156.75			  10.28808			  -0.00674			 -0.09914
	157.00			  10.21672			  -0.03040			 -0.06392
	157.25			  10.23191			  0.09399			 -0.09034
	157.50			  10.26395			  0.26300			 -0.07661
	157.75			  10.28902			  0.23613			 -0.05107
	158.00			  10.24615			  0.17731			 -0.06312
	158.25			  10.32463			  0.19793			 -0.02961
	158.50			  10.32964			  0.20098			 0.00802
	158.75			  10.26700			  0.17174			 0.06513
	159.00			  10.21033			  0.17495			 0.10381
	159.25			  10.29171			  0.21889			 0.03698
	159.50			  10.23910			  0.33280			 0.02394
	159.75			  10.19274			  0.25405			 0.15421
	160.00			  10.31409			  0.15602			 0.16061
	160.25			  10.24353			  0.08926			 0.09610
	160.50			  10.24964			  0.12357			 0.07304
	160.75			  10.28081			  -0.02432			 0.01869
	161.00			  10.16084			  0.01963			 -0.02707
	161.25			  10.03891			  0.01050			 -0.04462
	161.50			  10.05635			  -0.01587			 -0.09744
	161.75			  10.07473			  -0.01587			 -0.04710
	162.00			  10.13105			  0.00222			 -0.02810
	162.25			  10.10380			  -0.00792			 -0.04609
	162.50			  10.14333			  0.01794			 -0.05290
	162.75			  10.24949			  0.05309			 -0.05573
	163.00			  10.15699			  0.03484			 -0.20360
	163.25			  10.24433			  0.05073			 -0.28048
	163.50			  10.36154			  0.01777			 -0.20339
	163.75			  10.37113			  0.04734			 -0.19782
	164.00			  10.38334			  0.02520			 -0.25175
	164.25			  10.32920			  0.00492			 -0.03805
	164.50			  10.36648			  -0.05913			 0.08197
	164.75			  10.27223			  -0.04848			 0.12460
	165.00			  10.35449			  -0.06437			 0.18666
	165.25			  10.37178			  -0.00910			 0.19686
	165.50			  10.29643			  -0.13874			 0.19472
	165.75			  10.26664			  -0.23169			 0.17277
	166.00			  10.19746			  -0.41524			 0.12777
	166.25			  10.26751			  -0.36622			 0.13861