--------------TurbSim v2.00.* User Time Series Input File-----------------------
     Time series input from low-res turbsim run
--------------------------------------------------------------------------------
          3 nComp - Number of velocity components in the file
          1 nPoints - Number of time series points contained in this file (-)
          1 RefPtID - Index of the reference point (1-nPoints)
     Pointyi Pointzi ! nPoints listed in order of increasing height
       (m)     (m)
       -4.08301   94.00000
--------Time Series-------------------------------------------------------------
Elapsed Time         Point01u             Point01v           Point01w
         (s)            (m/s)                (m/s)              (m/s)
	0.00			  10.25556			  0.78451			 -0.08536
	0.25			  10.26742			  0.86881			 -0.00744
	0.50			  10.44120			  0.77365			 0.14866
	0.75			  10.59227			  0.64138			 0.24168
	1.00			  10.47085			  0.69804			 0.25820
	1.25			  10.52734			  0.68145			 0.03179
	1.50			  10.33586			  0.61571			 -0.32145
	1.75			  10.34039			  0.57603			 -0.34374
	2.00			  10.43698			  0.68224			 -0.35976
	2.25			  10.46210			  0.52312			 -0.44259
	2.50			  10.36089			  0.45599			 -0.58444
	2.75			  10.21425			  0.40526			 -0.18010
	3.00			  10.45929			  0.31997			 -0.22087
	3.25			  10.56452			  0.60722			 -0.22940
	3.50			  10.43044			  0.62045			 0.02210
	3.75			  10.37567			  0.80998			 0.01757
	4.00			  10.50201			  0.66428			 -0.13669
	4.25			  10.36149			  0.72824			 0.07485
	4.50			  10.28229			  0.64611			 0.20329
	4.75			  10.38340			  0.55806			 0.12526
	5.00			  10.31144			  0.56379			 0.13510
	5.25			  10.51789			  0.52114			 0.28943
	5.50			  10.45818			  0.69014			 0.30634
	5.75			  10.53126			  0.62124			 0.11293
	6.00			  10.53628			  0.48423			 -0.07256
	6.25			  10.61307			  0.68027			 0.12088
	6.50			  10.55819			  0.48837			 -0.00022
	6.75			  10.54965			  0.45086			 0.09568
	7.00			  10.53116			  0.55017			 -0.11245
	7.25			  10.23053			  0.55214			 -0.07779
	7.50			  10.30380			  0.55332			 0.07266
	7.75			  10.34823			  0.31286			 0.17267
	8.00			  10.32280			  0.22382			 -0.09181
	8.25			  10.30883			  0.13696			 -0.10680
	8.50			  10.38139			  -0.03263			 0.06041
	8.75			  10.45256			  -0.06777			 -0.09347
	9.00			  10.45909			  -0.00499			 0.05215
	9.25			  10.51025			  0.05305			 -0.08939
	9.50			  10.54181			  -0.00183			 0.04404
	9.75			  10.53477			  0.05167			 -0.07963
	10.00			  10.52703			  0.15670			 0.00439
	10.25			  10.62624			  -0.02631			 -0.08497
	10.50			  10.55307			  0.10122			 -0.09858
	10.75			  10.57176			  0.23942			 0.23860
	11.00			  10.67740			  0.42559			 0.24978
	11.25			  10.58422			  0.44948			 0.26611
	11.50			  10.25998			  0.39993			 0.07228
	11.75			  10.28712			  0.44968			 0.12876
	12.00			  10.40220			  0.16400			 0.29293
	12.25			  10.35305			  0.24988			 0.30522
	12.50			  10.27184			  0.36360			 0.13710
	12.75			  10.11816			  0.46172			 -0.00921
	13.00			  9.97262			  0.63940			 -0.26989
	13.25			  9.77300			  0.62914			 -0.18890
	13.50			  9.98870			  0.53338			 -0.08716
	13.75			  9.81029			  0.34188			 -0.00982
	14.00			  9.71561			  0.37781			 -0.22982
	14.25			  9.73180			  0.25047			 -0.36137
	14.50			  9.86246			  0.28127			 -0.27070
	14.75			  9.90658			  0.42954			 -0.25637
	15.00			  9.95282			  0.75766			 -0.08528
	15.25			  9.92980			  0.73969			 -0.15137
	15.50			  9.98689			  0.73890			 -0.07787
	15.75			  9.96920			  1.00365			 -0.06565
	16.00			  9.87754			  1.15764			 -0.03211
	16.25			  9.89171			  1.04215			 0.00631
	16.50			  9.81401			  0.90948			 -0.19370
	16.75			  9.77311			  0.87828			 -0.13972
	17.00			  9.80818			  0.87335			 -0.29859
	17.25			  9.62686			  0.95370			 -0.24204
	17.50			  9.69812			  1.03840			 -0.14015
	17.75			  9.98508			  1.17679			 -0.08152
	18.00			  9.98759			  1.12289			 0.00335
	18.25			  9.92236			  0.82380			 0.10874
	18.50			  9.63902			  0.69804			 0.03002
	18.75			  9.89261			  0.65500			 0.15281
	19.00			  9.79049			  0.69705			 0.12207
	19.25			  9.98257			  0.51325			 0.06709
	19.50			  10.06368			  0.60150			 0.22085
	19.75			  10.14178			  0.71462			 0.15465
	20.00			  10.17354			  0.75430			 0.23684
	20.25			  10.14449			  0.70751			 0.08093
	20.50			  9.91030			  0.61176			 0.23976
	20.75			  9.88698			  0.53891			 0.47777
	21.00			  10.06258			  0.56458			 0.32513
	21.25			  10.01554			  0.28463			 0.38383
	21.50			  9.75984			  0.19816			 0.23726
	21.75			  9.82869			  0.16973			 -0.01862
	22.00			  9.82517			  0.23508			 0.11800
	22.25			  9.93694			  0.22343			 0.12788
	22.50			  9.91543			  -0.00519			 -0.08179
	22.75			  9.68305			  0.11781			 -0.04240
	23.00			  9.88517			  -0.09285			 -0.04851
	23.25			  10.01232			  -0.06679			 -0.09324
	23.50			  9.80255			  -0.06461			 -0.23297
	23.75			  9.82899			  0.03785			 -0.03687
	24.00			  9.73240			  -0.11318			 -0.10960
	24.25			  9.45409			  -0.13292			 -0.31730
	24.50			  9.53811			  0.02166			 -0.39499
	24.75			  9.73692			  0.06805			 -0.10388
	25.00			  9.57088			  -0.07804			 -0.00621
	25.25			  9.55188			  0.06588			 -0.08209
	25.50			  9.72587			  0.16598			 0.05929
	25.75			  9.75602			  -0.08495			 -0.12582
	26.00			  9.90136			  -0.09877			 -0.02742
	26.25			  9.81472			  0.01139			 -0.07283
	26.50			  9.67601			  0.18197			 0.05253
	26.75			  9.92146			  -0.05474			 -0.13642
	27.00			  9.96347			  -0.12582			 -0.30924
	27.25			  9.84206			  -0.34358			 -0.31485
	27.50			  9.90317			  -0.44130			 -0.37597
	27.75			  9.79592			  -0.45137			 -0.41385
	28.00			  9.76898			  -0.64129			 -0.29571
	28.25			  9.59912			  -0.41307			 -0.05059
	28.50			  9.59008			  -0.40557			 -0.07656
	28.75			  9.75230			  -0.29205			 -0.29364
	29.00			  9.94568			  -0.22650			 0.06502
	29.25			  10.05765			  -0.11910			 0.02963
	29.50			  10.12590			  -0.14753			 -0.00137
	29.75			  10.07212			  0.04081			 0.01792
	30.00			  9.92940			  0.08385			 0.24394
	30.25			  9.88517			  -0.08080			 0.36132
	30.50			  9.67249			  0.07793			 0.35217
	30.75			  9.82236			  -0.10963			 0.05065
	31.00			  9.77431			  0.02778			 0.05365
	31.25			  9.63852			  -0.00341			 0.07943
	31.50			  9.46775			  0.01890			 0.14132
	31.75			  9.46595			  0.12629			 0.04154
	32.00			  9.55299			  0.06292			 0.07366
	32.25			  9.34594			  0.00527			 0.00647
	32.50			  9.41961			  0.00251			 0.11262
	32.75			  9.50836			  -0.08041			 -0.01701
	33.00			  9.47640			  -0.02572			 0.38283
	33.25			  9.64465			  -0.13095			 0.41591
	33.50			  9.66134			  0.04101			 0.30526
	33.75			  9.56957			  0.10695			 0.35302
	34.00			  9.60897			  0.39993			 0.05599
	34.25			  9.57751			  0.28799			 0.23438
	34.50			  9.70908			  0.00804			 0.14997
	34.75			  9.87593			  -0.17576			 0.10621
	35.00			  9.63631			  -0.24467			 0.21278
	35.25			  9.74758			  -0.43123			 0.15608
	35.50			  9.84507			  -0.34831			 0.24871
	35.75			  9.70556			  -0.17498			 0.13683
	36.00			  9.78989			  -0.22927			 0.15116
	36.25			  9.95513			  -0.06738			 -0.01440
	36.50			  9.96106			  0.04357			 -0.27047
	36.75			  9.81431			  -0.17024			 -0.26747
	37.00			  9.68827			  -0.12226			 -0.16693
	37.25			  9.82567			  -0.18623			 0.02256
	37.50			  9.88337			  -0.10686			 0.16664
	37.75			  9.60063			  -0.31021			 0.27699
	38.00			  9.55017			  -0.49303			 0.24590
	38.25			  9.48092			  -0.44880			 -0.06980
	38.50			  9.68807			  -0.37043			 0.09883
	38.75			  9.74768			  -0.37220			 -0.01394
	39.00			  9.52886			  0.00863			 -0.12439
	39.25			  9.36574			  0.00271			 -0.10979
	39.50			  9.66395			  -0.07547			 -0.23209
	39.75			  9.66656			  -0.14714			 -0.11122
	40.00			  9.80668			  -0.13411			 0.04285
	40.25			  10.04458			  -0.07054			 0.03939
	40.50			  10.07956			  0.11109			 -0.00591
	40.75			  9.97403			  0.06035			 -0.01428
	41.00			  10.02609			  0.02521			 0.26803
	41.25			  10.02689			  0.09254			 0.31229
	41.50			  10.00890			  0.01376			 0.12127
	41.75			  10.01614			  -0.14813			 0.04277
	42.00			  10.18801			  -0.36944			 0.19891
	42.25			  10.21153			  -0.36865			 0.31875
	42.50			  10.43738			  -0.52146			 0.39805
	42.75			  10.28892			  -0.36194			 0.34526
	43.00			  10.07082			  -0.32127			 0.23069
	43.25			  9.84366			  -0.26263			 0.18735
	43.50			  10.00508			  -0.26776			 0.27583
	43.75			  10.09685			  -0.45295			 0.26742
	44.00			  10.27526			  -0.58976			 0.25024
	44.25			  10.26842			  -0.70940			 0.32013
	44.50			  10.32792			  -0.68552			 0.15646
	44.75			  10.16680			  -0.75896			 -0.10926
	45.00			  10.25395			  -0.67209			 -0.00210
	45.25			  10.53588			  -0.66676			 -0.03334
	45.50			  10.49879			  -0.49500			 -0.03222
	45.75			  10.27676			  -0.38405			 0.10060
	46.00			  10.34551			  -0.27843			 0.11681
	46.25			  10.07665			  -0.14260			 0.44538
	46.50			  9.99373			  -0.05711			 0.24371
	46.75			  9.88638			  -0.02947			 0.18781
	47.00			  10.00167			  0.08365			 0.49883
	47.25			  9.93583			  0.03390			 0.21793
	47.50			  9.84758			  -0.01289			 0.14013
	47.75			  9.79974			  0.18987			 0.18024
	48.00			  9.69963			  0.21612			 0.30522
	48.25			  9.72607			  0.05443			 0.09145
	48.50			  9.73240			  0.00429			 0.01849
	48.75			  9.74345			  0.16973			 0.00985
	49.00			  9.85774			  0.05187			 0.01634
	49.25			  9.78698			  0.05246			 0.02341
	49.50			  9.97021			  -0.12384			 0.38752
	49.75			  9.91241			  -0.11930			 0.33930
	50.00			  9.82125			  -0.21604			 0.12319
	50.25			  9.66596			  -0.45275			 0.06951
	50.50			  9.58374			  -0.39076			 0.06075
	50.75			  9.61018			  -0.34772			 0.29328
	51.00			  9.67792			  -0.13529			 0.40835
	51.25			  9.99413			  0.05621			 0.42329
	51.50			  9.88990			  0.08681			 0.29036
	51.75			  9.73572			  0.16598			 0.25977
	52.00			  9.66888			  0.06233			 0.53340
	52.25			  9.49891			  0.10991			 0.45918
	52.50			  9.34684			  0.18868			 0.57209
	52.75			  9.31629			  0.43921			 0.30157
	53.00			  9.34352			  0.56635			 0.31041
	53.25			  9.35357			  0.56971			 0.12926
	53.50			  9.62686			  0.29805			 0.33147
	53.75			  9.70918			  0.26548			 0.32613
	54.00			  9.62365			  0.40624			 0.25520
	54.25			  9.55128			  0.50831			 0.25785
	54.50			  9.60857			  0.41592			 -0.07925
	54.75			  9.48374			  0.47988			 0.03570
	55.00			  9.57359			  0.46310			 0.25793
	55.25			  9.73079			  0.50831			 0.18324
	55.50			  9.81100			  0.51542			 0.35897
	55.75			  9.81080			  0.30891			 0.16238
	56.00			  9.84537			  0.28009			 0.04400
	56.25			  9.86407			  0.11129			 -0.04744
	56.50			  9.65259			  0.06687			 0.04688
	56.75			  9.68717			  -0.20854			 0.24325
	57.00			  9.83341			  -0.18860			 0.06556
	57.25			  9.88578			  -0.18761			 -0.07856
	57.50			  9.94086			  -0.07054			 0.01907
	57.75			  10.00669			  0.00745			 0.00539
	58.00			  10.16711			  -0.10528			 -0.34597
	58.25			  10.07484			  -0.02434			 -0.33217
	58.50			  10.13836			  -0.01605			 -0.05470
	58.75			  10.19455			  -0.17853			 -0.25045
	59.00			  10.32601			  0.05996			 -0.25372
	59.25			  10.20741			  0.20447			 -0.21833
	59.50			  10.12389			  -0.09620			 -0.12847
	59.75			  10.16359			  -0.22058			 -0.03841
	60.00			  10.03303			  0.16775			 -0.15225
	60.25			  10.16087			  -0.02079			 -0.13104
	60.50			  10.04881			  -0.12187			 -0.35818
	60.75			  9.99885			  -0.01131			 0.02076
	61.00			  10.09042			  -0.07054			 -0.11771
	61.25			  10.10429			  -0.11595			 0.00658
	61.50			  10.10228			  -0.23598			 -0.07591
	61.75			  9.99352			  -0.34081			 -0.20950
	62.00			  10.17324			  -0.24625			 -0.12028
	62.25			  10.31817			  -0.17675			 -0.16351
	62.50			  10.35566			  -0.24625			 -0.35761
	62.75			  10.33787			  -0.00223			 -0.40898
	63.00			  10.28872			  -0.33982			 -0.61337
	63.25			  10.43276			  -0.27270			 -0.40878
	63.50			  10.22178			  -0.08416			 -0.21245
	63.75			  10.15283			  -0.08692			 0.03325
	64.00			  9.98247			  -0.12463			 0.10498
	64.25			  10.32159			  -0.08969			 -0.12724
	64.50			  10.22430			  0.00823			 -0.27904
	64.75			  10.19635			  -0.10884			 -0.05896
	65.00			  10.22178			  -0.37260			 -0.02611
	65.25			  10.07785			  -0.38740			 0.03079
	65.50			  10.12610			  -0.45216			 0.08650
	65.75			  10.15565			  -0.41406			 0.12803
	66.00			  10.26510			  -0.15464			 0.11627
	66.25			  10.14489			  -0.33213			 0.00139
	66.50			  10.06157			  -0.35049			 0.21278
	66.75			  10.06830			  -0.24230			 0.19672
	67.00			  9.80567			  -0.05020			 0.06725
	67.25			  9.85623			  0.20902			 0.19438
	67.50			  9.78205			  0.48758			 0.41999
	67.75			  9.85120			  0.62301			 0.34522
	68.00			  9.73672			  0.64453			 0.28190
	68.25			  9.79743			  0.60465			 0.34610
	68.50			  9.99714			  0.62045			 0.25712
	68.75			  10.37024			  0.62203			 0.27925
	69.00			  10.39516			  0.59518			 0.35897
	69.25			  10.19967			  0.35412			 0.21786
	69.50			  10.20922			  0.46113			 0.19542
	69.75			  10.10610			  0.39894			 0.16610
	70.00			  10.07162			  0.31089			 0.23515
	70.25			  10.03614			  0.42855			 0.21048
	70.50			  9.90085			  0.29726			 0.11101
	70.75			  10.04539			  -0.00835			 0.10133
	71.00			  10.14138			  -0.31140			 0.22112
	71.25			  10.24118			  -0.11219			 0.27122
	71.50			  10.20520			  0.03272			 0.24221
	71.75			  10.14741			  0.11208			 0.28290
	72.00			  10.09785			  0.14485			 0.25712
	72.25			  10.18399			  0.06430			 0.11735
	72.50			  10.36461			  0.01732			 -0.01797
	72.75			  10.50241			  -0.28020			 0.06056
	73.00			  10.50030			  -0.01723			 0.14889
	73.25			  10.32139			  0.10714			 0.18316
	73.50			  10.48482			  0.12037			 0.24460
	73.75			  10.29114			  0.11781			 0.33293
	74.00			  10.25978			  0.09175			 0.53333
	74.25			  10.26259			  0.09826			 0.55400
	74.50			  10.27606			  -0.01348			 0.60660
	74.75			  10.24370			  0.00172			 0.54447
	75.00			  10.31074			  -0.13154			 0.28790
	75.25			  10.27023			  -0.10311			 0.21789
	75.50			  10.36893			  0.04456			 0.29543
	75.75			  10.32652			  0.10912			 0.23292
	76.00			  10.17253			  0.17032			 0.20406
	76.25			  9.98267			  -0.04843			 -0.02957
	76.50			  9.84990			  0.01791			 -0.15920
	76.75			  9.85100			  0.08247			 -0.21987
	77.00			  9.77512			  0.09490			 -0.02773
	77.25			  9.68888			  0.31128			 0.07989
	77.50			  9.89181			  0.13163			 0.15926
	77.75			  9.92025			  0.14999			 0.19150
	78.00			  9.94407			  0.22422			 0.19119
	78.25			  10.04549			  0.02758			 0.09449
	78.50			  10.12640			  -0.05060			 0.27679
	78.75			  9.84507			  -0.20321			 0.33458
	79.00			  9.84226			  -0.28297			 0.09310
	79.25			  9.95242			  -0.24249			 0.16441
	79.50			  9.77883			  -0.04211			 0.24786
	79.75			  9.84879			  0.03963			 0.08265
	80.00			  9.84276			  -0.08554			 0.04224
	80.25			  9.84135			  -0.03342			 0.10459
	80.50			  9.58294			  -0.11555			 0.05668
	80.75			  9.32865			  0.07536			 0.10847
	81.00			  9.58515			  0.12629			 0.06045
	81.25			  9.77130			  0.18394			 0.25935
	81.50			  9.77783			  -0.06323			 0.24471
	81.75			  9.51268			  -0.27507			 0.42218
	82.00			  9.33729			  -0.18248			 0.14094
	82.25			  9.53570			  0.18809			 0.27672
	82.50			  9.47620			  0.14327			 0.22135
	82.75			  9.43087			  -0.00460			 -0.13304
	83.00			  9.48977			  -0.10785			 0.05238
	83.25			  9.40122			  -0.05099			 0.12515
	83.50			  9.30704			  -0.04349			 0.09061
	83.75			  9.06923			  0.16933			 0.12081
	84.00			  9.15557			  0.16775			 0.08773
	84.25			  9.28111			  0.09925			 -0.05259
	84.50			  9.35860			  0.09866			 0.19319
	84.75			  9.31548			  0.18947			 0.29689
	85.00			  9.45077			  0.21731			 0.29278
	85.25			  9.58766			  0.26291			 0.35233
	85.50			  9.48424			  0.25502			 0.28140
	85.75			  9.50937			  -0.11259			 0.40954
	86.00			  9.54686			  -0.08416			 0.38871
	86.25			  9.73491			  -0.14753			 0.26677
	86.50			  9.80215			  -0.39096			 0.34691
	86.75			  9.51268			  -0.39866			 0.38733
	87.00			  9.59822			  -0.35878			 0.53121
	87.25			  9.60435			  -0.23322			 0.35636
	87.50			  9.65430			  -0.05316			 0.53198
	87.75			  9.68214			  0.04160			 0.44285
	88.00			  9.63611			  -0.10055			 0.25021
	88.25			  9.51670			  -0.13194			 0.22804
	88.50			  9.61430			  0.00152			 0.06022
	88.75			  9.76858			  -0.16451			 0.31602
	89.00			  9.86698			  -0.05652			 0.24763
	89.25			  10.02348			  0.00488			 0.15561
	89.50			  10.10147			  -0.01427			 0.34733
	89.75			  10.19434			  -0.22887			 0.30918
	90.00			  10.16751			  -0.41228			 0.36116
	90.25			  10.09906			  -0.42827			 0.28102
	90.50			  10.21053			  -0.57358			 0.27222
	90.75			  10.13032			  -0.32127			 0.43140
	91.00			  10.06680			  -0.36529			 0.28947
	91.25			  10.37345			  -0.50290			 0.21605
	91.50			  10.39627			  -0.60141			 0.20087
	91.75			  10.25445			  -0.66498			 0.35248
	92.00			  10.07936			  -0.54376			 0.05895
	92.25			  10.20440			  -0.42097			 -0.15014
	92.50			  10.18781			  -0.53093			 -0.16581
	92.75			  10.30360			  -0.41465			 0.06959
	93.00			  10.29968			  -0.27053			 -0.07149
	93.25			  10.35014			  -0.19669			 -0.23935
	93.50			  10.35918			  -0.23736			 -0.26859
	93.75			  10.47889			  -0.27152			 -0.19659
	94.00			  10.37908			  -0.36154			 -0.20619
	94.25			  10.03333			  -0.68946			 -0.10326
	94.50			  9.94005			  -0.44387			 0.17410
	94.75			  10.07122			  -0.35463			 0.05077
	95.00			  10.03001			  -0.10844			 0.16603
	95.25			  9.82316			  -0.22848			 -0.05989
	95.50			  9.83221			  -0.29698			 -0.18080
	95.75			  9.81301			  -0.18544			 -0.07683
	96.00			  9.69069			  -0.39056			 -0.04452
	96.25			  9.74557			  -0.20913			 0.02180
	96.50			  9.87603			  -0.09462			 0.10083
	96.75			  9.77914			  -0.17261			 -0.03368
	97.00			  9.87603			  -0.06264			 -0.12493
	97.25			  9.80748			  -0.03263			 -0.03161
	97.50			  10.05464			  0.19381			 -0.03772
	97.75			  10.05122			  0.06351			 -0.11237
	98.00			  10.18872			  0.14169			 -0.04540
	98.25			  9.95563			  0.19184			 -0.04118
	98.50			  9.93613			  0.16657			 -0.32783
	98.75			  10.03735			  0.08326			 -0.13454
	99.00			  9.86045			  0.17980			 -0.23086
	99.25			  9.85844			  0.12373			 -0.14902
	99.50			  10.01011			  -0.17399			 0.04642
	99.75			  10.08248			  -0.40734			 0.16119
	100.00			  10.21053			  -0.27862			 0.10267
	100.25			  10.00579			  -0.16767			 0.17659
	100.50			  10.03333			  -0.31712			 0.26269
	100.75			  10.12449			  -0.46894			 0.12100
	101.00			  9.91000			  -0.24210			 0.04128
	101.25			  9.93543			  -0.17340			 -0.00137
	101.50			  9.99624			  -0.08534			 0.03228
	101.75			  9.92689			  0.03607			 0.17079
	102.00			  10.21213			  0.14426			 0.00716
	102.25			  10.26611			  0.11721			 0.25643
	102.50			  10.22781			  0.04890			 0.31633
	102.75			  10.34109			  0.06233			 -0.01993
	103.00			  10.22158			  0.00054			 0.18047
	103.25			  10.13575			  0.09510			 0.04201
	103.50			  10.33596			  0.34188			 0.05073
	103.75			  10.38129			  0.47001			 -0.10553
	104.00			  10.48321			  0.32806			 -0.30820
	104.25			  10.49186			  0.45481			 -0.27247
	104.50			  10.49949			  0.49271			 -0.08632
	104.75			  10.56865			  0.60564			 0.04220
	105.00			  10.33265			  0.63762			 -0.26989
	105.25			  10.29365			  0.39993			 -0.39265
	105.50			  10.33265			  0.22027			 -0.18149
	105.75			  10.32662			  0.32629			 0.02525
	106.00			  10.34943			  0.01593			 0.14186
	106.25			  10.35094			  -0.26540			 -0.01947
	106.50			  10.24862			  -0.17261			 -0.21925
	106.75			  10.48472			  -0.29007			 -0.32257
	107.00			  10.36381			  -0.16530			 -0.45416
	107.25			  10.52060			  -0.31436			 -0.14311
	107.50			  10.31365			  -0.15109			 -0.26259
	107.75			  10.57427			  -0.03579			 -0.28142
	108.00			  10.79891			  0.05305			 -0.13903
	108.25			  10.97481			  0.08740			 0.06160
	108.50			  11.11462			  -0.03599			 -0.18010
	108.75			  10.96395			  0.05937			 -0.29671
	109.00			  10.91792			  0.00073			 -0.31200
	109.25			  11.04697			  -0.20340			 -0.36037
	109.50			  10.84394			  -0.16214			 -0.10968
	109.75			  10.98054			  -0.23479			 -0.00387
	110.00			  10.88445			  -0.06442			 -0.11721
	110.25			  10.89309			  0.06391			 0.01154
	110.50			  10.92174			  0.02956			 -0.00099
	110.75			  11.01391			  -0.01861			 -0.11510
	111.00			  10.89922			  0.04377			 -0.10584
	111.25			  10.79932			  -0.17300			 0.08250
	111.50			  10.87088			  -0.19748			 0.28509
	111.75			  10.82897			  -0.30883			 0.08573
	112.00			  11.16708			  -0.28455			 -0.20988
	112.25			  11.14537			  -0.27388			 -0.04260
	112.50			  11.23362			  -0.34812			 0.05733
	112.75			  11.23694			  -0.24072			 0.28064
	113.00			  11.24076			  -0.13944			 0.42298
	113.25			  11.08044			  -0.08692			 0.25213
	113.50			  10.94094			  -0.07074			 0.20472
	113.75			  10.92717			  0.00192			 0.28475
	114.00			  10.88365			  0.01732			 0.23968
	114.25			  10.96707			  0.01060			 0.24440
	114.50			  10.98757			  -0.21861			 0.13852
	114.75			  11.07401			  0.01278			 0.08192
	115.00			  11.02667			  0.13123			 0.18197
	115.25			  10.77409			  -0.12937			 -0.16285
	115.50			  10.79811			  -0.21979			 0.00981
	115.75			  10.90536			  -0.36233			 -0.15989
	116.00			  11.11844			  -0.19353			 -0.12155
	116.25			  11.19885			  -0.32837			 0.08611
	116.50			  11.28870			  0.06805			 0.05849
	116.75			  11.30026			  0.19421			 0.10394
	117.00			  11.40027			  -0.06856			 0.01158
	117.25			  11.24960			  0.02936			 0.02237
	117.50			  11.25674			  -0.13885			 -0.02811
	117.75			  11.34469			  -0.19511			 -0.15478
	118.00			  11.43464			  -0.31811			 -0.28503
	118.25			  11.29152			  -0.29837			 -0.15332
	118.50			  11.15985			  0.20823			 0.17698
	118.75			  11.18729			  0.34761			 0.08012
	119.00			  11.17241			  0.43171			 0.02960
	119.25			  11.04265			  0.46113			 0.15750
	119.50			  10.99461			  0.53141			 -0.06062
	119.75			  10.78896			  0.60189			 0.02233
	120.00			  10.73399			  0.50101			 0.16868
	120.25			  10.79128			  0.37051			 0.13771
	120.50			  10.62543			  0.52687			 0.02268
	120.75			  10.62171			  0.35156			 0.18132
	121.00			  10.50573			  0.52865			 0.19138
	121.25			  10.70273			  0.41572			 0.30960
	121.50			  10.65860			  0.30279			 0.24537
	121.75			  10.68453			  0.22303			 0.18781
	122.00			  10.86204			  0.30911			 0.27606
	122.25			  10.88807			  0.16993			 0.18528
	122.50			  10.75951			  -0.04862			 0.31909
	122.75			  10.70614			  -0.07626			 0.27944
	123.00			  10.96586			  0.06766			 0.27291
	123.25			  11.00526			  0.20013			 0.24636
	123.50			  10.84254			  0.11840			 0.19738
	123.75			  10.81811			  0.18710			 0.11669
	124.00			  10.82595			  0.10418			 0.10355
	124.25			  10.65609			  0.22422			 -0.02734
	124.50			  10.49779			  0.34168			 -0.11022
	124.75			  10.42502			  0.32925			 -0.04840
	125.00			  10.37888			  0.13676			 0.05176
	125.25			  10.17907			  0.04417			 -0.06995
	125.50			  10.18831			  0.00034			 0.01427
	125.75			  10.40401			  0.17111			 0.01768
	126.00			  10.54241			  0.42381			 -0.04367
	126.25			  10.49517			  0.29904			 -0.01816
	126.50			  10.61528			  0.51029			 -0.07656
	126.75			  10.74816			  0.38354			 0.00735
	127.00			  10.83661			  0.05305			 -0.25871
	127.25			  10.69167			  0.13735			 -0.39226
	127.50			  10.67237			  0.18532			 -0.37278
	127.75			  10.47819			  0.04555			 -0.27281
	128.00			  10.35345			  -0.10094			 -0.65491
	128.25			  10.24098			  -0.12838			 -0.52800
	128.50			  10.35295			  0.15907			 -0.25437
	128.75			  10.25867			  0.07635			 0.03282
	129.00			  10.24691			  0.07042			 -0.01332
	129.25			  10.12821			  0.01416			 0.03801
	129.50			  10.16027			  0.06154			 -0.03706
	129.75			  10.18821			  -0.12128			 -0.00890
	130.00			  10.14308			  0.11307			 -0.15098
	130.25			  10.38079			  0.03291			 -0.05720
	130.50			  10.23616			  -0.04961			 -0.32487
	130.75			  10.22460			  -0.09127			 -0.35715
	131.00			  10.06841			  0.17723			 -0.26432
	131.25			  10.04187			  0.28423			 -0.11502
	131.50			  9.87945			  0.49805			 -0.09008
	131.75			  10.04277			  0.30773			 -0.06430
	132.00			  10.16017			  0.14564			 -0.01148
	132.25			  10.14942			  0.19006			 0.06095
	132.50			  10.05293			  0.38077			 0.19069
	132.75			  9.97272			  0.41256			 0.10329
	133.00			  10.01714			  0.29075			 -0.00183
	133.25			  9.98709			  0.25265			 0.10632
	133.50			  9.85241			  0.65796			 0.33538
	133.75			  10.01021			  0.86901			 0.12046
	134.00			  10.13333			  0.75134			 -0.09304
	134.25			  10.11072			  0.60347			 -0.14095
	134.50			  10.17565			  0.49508			 -0.20842
	134.75			  10.31687			  0.63466			 -0.25468
	135.00			  10.50201			  0.51048			 -0.20308
	135.25			  10.40481			  0.50890			 -0.14307
	135.50			  10.30541			  0.34682			 0.14582
	135.75			  10.34601			  0.54661			 0.17390
	136.00			  10.46653			  0.33478			 0.35214
	136.25			  10.58885			  0.34504			 0.28655
	136.50			  10.63961			  0.22284			 0.13129
	136.75			  10.45567			  0.29233			 0.16172
	137.00			  10.35989			  0.27515			 0.00581
	137.25			  10.21023			  0.29490			 -0.16089
	137.50			  10.02257			  0.17763			 -0.20316
	137.75			  10.08821			  0.18394			 -0.20577
	138.00			  10.14922			  0.24811			 -0.18414
	138.25			  10.14680			  -0.09502			 -0.17257
	138.50			  10.17826			  0.02383			 -0.03399
	138.75			  10.20560			  0.08661			 -0.04974
	139.00			  10.14308			  -0.04369			 0.06329
	139.25			  10.20842			  -0.32837			 -0.08067
	139.50			  10.32873			  -0.23124			 -0.02404
	139.75			  10.20399			  -0.28553			 -0.36041
	140.00			  10.01895			  -0.20992			 -0.34527
	140.25			  9.90186			  0.03943			 -0.24838
	140.50			  9.80336			  0.00073			 -0.09151
	140.75			  9.83020			  -0.10134			 -0.14772
	141.00			  9.81783			  -0.11338			 0.34384
	141.25			  9.88598			  0.00883			 0.40569
	141.50			  9.94458			  -0.15504			 0.31345
	141.75			  10.06639			  0.06174			 0.13383
	142.00			  10.14308			  -0.04013			 0.10947
	142.25			  10.25425			  0.07003			 0.09430
	142.50			  10.39908			  0.20526			 -0.09746
	142.75			  10.36200			  0.06332			 -0.09908
	143.00			  10.59508			  -0.17083			 -0.24281
	143.25			  10.59297			  -0.22255			 -0.19144
	143.50			  10.46019			  -0.33706			 -0.16443
	143.75			  10.33124			  -0.28751			 -0.04433
	144.00			  10.37094			  -0.01546			 0.05011
	144.25			  10.29948			  -0.02770			 0.12407
	144.50			  10.44884			  0.06766			 -0.08482
	144.75			  10.50010			  0.15551			 -0.07237
	145.00			  10.62081			  0.08661			 -0.19217
	145.25			  10.64895			  0.08997			 -0.45896
	145.50			  10.63026			  0.18414			 -0.45689
	145.75			  10.59015			  0.18947			 -0.47713
	146.00			  10.68132			  0.30674			 -0.66536
	146.25			  10.62061			  0.25699			 -0.55774
	146.50			  10.41939			  0.34623			 -0.72633
	146.75			  10.56312			  0.19144			 -0.67081
	147.00			  10.53889			  0.18690			 -0.64703
	147.25			  10.36069			  0.21138			 -0.59512
	147.50			  10.68886			  0.10912			 -0.58225
	147.75			  10.78927			  0.21000			 -0.31116
	148.00			  10.89802			  0.11149			 -0.41512
	148.25			  10.89490			  0.03331			 -0.42277
	148.50			  10.85902			  0.26844			 -0.21826
	148.75			  11.01180			  0.28818			 -0.42446
	149.00			  10.85972			  0.09471			 -0.41312
	149.25			  10.82867			  -0.25414			 -0.22141
	149.50			  10.83399			  -0.31910			 -0.19186
	149.75			  10.93159			  -0.14516			 -0.29487
	150.00			  11.04446			  0.14268			 -0.08459
	150.25			  10.93772			  -0.07982			 -0.03399
	150.50			  10.74032			  -0.05060			 -0.13949
	150.75			  10.87168			  0.26627			 -0.23420
	151.00			  10.79952			  0.41848			 -0.33651
	151.25			  10.74253			  0.48186			 -0.11402
	151.50			  10.71006			  0.51858			 -0.16005
	151.75			  10.67529			  0.59893			 -0.25345
	152.00			  10.55518			  0.32175			 -0.16347
	152.25			  10.72826			  0.48679			 -0.23082
	152.50			  10.72383			  0.29746			 -0.18233
	152.75			  10.58734			  0.08148			 -0.29840
	153.00			  10.51598			  0.13044			 -0.16239
	153.25			  10.46934			  0.18927			 -0.19263
	153.50			  10.47799			  0.22323			 -0.34289
	153.75			  10.41295			  -0.02533			 -0.35803
	154.00			  10.49718			  -0.22946			 -0.14487
	154.25			  10.55136			  -0.29856			 0.05115
	154.50			  10.61036			  -0.17419			 0.03570
	154.75			  10.63106			  0.18394			 -0.00222
	155.00			  10.69529			  0.06865			 -0.08732
	155.25			  10.86143			  0.09826			 -0.09961
	155.50			  10.73258			  -0.01842			 0.06122
	155.75			  10.52211			  -0.07962			 0.00869
	156.00			  10.36561			  0.05720			 0.12668
	156.25			  10.18188			  -0.27290			 0.25151
	156.50			  10.00317			  -0.16688			 0.20299
	156.75			  10.17686			  0.06766			 0.13583
	157.00			  10.31094			  0.05068			 0.21728
	157.25			  10.30611			  -0.15168			 0.11777
	157.50			  10.48201			  -0.06402			 0.06148
	157.75			  10.54462			  -0.05178			 -0.12382
	158.00			  10.56050			  -0.10213			 -0.21910
	158.25			  10.64996			  -0.05613			 -0.29571
	158.50			  10.57880			  -0.30587			 -0.13150
	158.75			  10.57267			  -0.30725			 -0.21222
	159.00			  10.58443			  -0.32601			 0.10229
	159.25			  10.57900			  -0.57259			 0.04742
	159.50			  10.46803			  -0.58542			 -0.02112
	159.75			  10.39627			  -0.46361			 -0.04202
	160.00			  10.42853			  -0.42353			 0.05434
	160.25			  10.41336			  -0.31712			 -0.02611
	160.50			  10.45235			  -0.36470			 -0.26017
	160.75			  10.34722			  -0.31337			 -0.11671
	161.00			  10.23636			  -0.30073			 0.11366
	161.25			  10.36592			  -0.47526			 -0.00368
	161.50			  10.33204			  -0.59470			 0.19323
	161.75			  10.32471			  -0.80456			 0.09806
	162.00			  10.38099			  -0.67505			 0.08930
	162.25			  10.39999			  -0.68413			 0.10229
	162.50			  10.42642			  -0.62037			 -0.10503
	162.75			  10.62885			  -0.59549			 -0.00218
	163.00			  10.68262			  -0.75580			 -0.05412
	163.25			  10.63126			  -0.90604			 -0.01609
	163.50			  10.74956			  -1.06082			 -0.00195
	163.75			  10.75831			  -1.07109			 -0.16343
	164.00			  10.65659			  -0.87050			 -0.21753
	164.25			  10.62865			  -0.72638			 -0.19805
	164.50			  10.63488			  -0.70388			 -0.23193
	164.75			  10.55437			  -0.39037			 0.04915
	165.00			  10.62443			  -0.39392			 -0.05443
	165.25			  10.55980			  -0.25829			 -0.12420
	165.50			  10.35788			  0.02699			 -0.14587
	165.75			  10.29958			  -0.20281			 -0.27823
	166.00			  10.33405			  -0.28474			 -0.15475
	166.25			  10.20027			  -0.21762			 -0.12900