--------------TurbSim v2.00.* User Time Series Input File-----------------------
     Time series input from low-res turbsim run
--------------------------------------------------------------------------------
          3 nComp - Number of velocity components in the file
          1 nPoints - Number of time series points contained in this file (-)
          1 RefPtID - Index of the reference point (1-nPoints)
     Pointyi Pointzi ! nPoints listed in order of increasing height
       (m)     (m)
       3.81190   94.00000
--------Time Series-------------------------------------------------------------
Elapsed Time         Point01u             Point01v           Point01w
         (s)            (m/s)                (m/s)              (m/s)
	0.00			  9.38879			  0.00328			 -0.70620
	0.25			  9.72059			  -0.02580			 -0.79816
	0.50			  9.72086			  -0.03125			 -0.91880
	0.75			  9.76242			  0.28995			 -0.56464
	1.00			  9.41713			  0.25633			 -0.24054
	1.25			  9.69088			  0.55981			 -0.53032
	1.50			  9.84867			  0.44487			 -0.77936
	1.75			  10.10703			  0.15933			 -0.57130
	2.00			  10.32573			  -0.28839			 -0.81638
	2.25			  10.50164			  -0.39448			 -0.71453
	2.50			  10.54020			  -0.29157			 -0.48521
	2.75			  10.18034			  0.03417			 -0.06409
	3.00			  10.03290			  -0.40447			 -0.25450
	3.25			  10.14463			  -0.74498			 -0.24898
	3.50			  10.18388			  -0.84084			 -0.25059
	3.75			  9.93425			  -0.89559			 -0.57142
	4.00			  9.81774			  -0.79223			 -0.53291
	4.25			  9.80412			  -0.77860			 -0.49176
	4.50			  10.04012			  -0.73067			 -0.69447
	4.75			  10.09081			  -0.54122			 -0.25669
	5.00			  10.16794			  -0.52895			 -0.13300
	5.25			  10.01519			  -0.49851			 -0.35405
	5.50			  9.91599			  -0.12166			 -0.37118
	5.75			  9.85113			  -0.32587			 -0.48492
	6.00			  9.85889			  -0.49715			 -0.56268
	6.25			  10.21931			  -0.43128			 -0.79396
	6.50			  10.20759			  -0.36495			 -0.65648
	6.75			  10.08672			  -0.68933			 -0.54492
	7.00			  9.91953			  -0.77951			 -0.53234
	7.25			  9.71487			  -0.71613			 -0.20996
	7.50			  9.69524			  -0.73294			 -0.38830
	7.75			  9.77850			  -0.22502			 -0.46521
	8.00			  9.89269			  -0.12143			 -0.20254
	8.25			  9.91790			  -0.04693			 -0.31301
	8.50			  9.81979			  0.18137			 -0.21806
	8.75			  9.77959			  -0.22138			 -0.05265
	9.00			  9.36576			  -0.34382			 -0.07926
	9.25			  9.55040			  -0.61005			 -0.04374
	9.50			  9.43648			  -0.71659			 -0.10219
	9.75			  9.92430			  -1.18567			 -0.08754
	10.00			  9.81992			  -1.32696			 -0.16829
	10.25			  9.55326			  -1.00485			 -0.33617
	10.50			  9.60776			  -0.83312			 -0.25967
	10.75			  9.49821			  -0.76974			 -0.49946
	11.00			  9.44357			  -1.02734			 -0.47009
	11.25			  9.58038			  -1.01530			 -0.16800
	11.50			  9.34165			  -0.72794			 -0.32818
	11.75			  9.48227			  -0.66661			 -0.40445
	12.00			  9.40623			  -0.65389			 -0.40572
	12.25			  9.41904			  -0.65434			 -0.45009
	12.50			  9.25962			  -0.62777			 -0.41020
	12.75			  9.12853			  -0.63958			 -0.09909
	13.00			  9.21424			  -0.86083			 -0.00523
	13.25			  9.31031			  -0.75929			 -0.02920
	13.50			  9.33742			  -0.75770			 -0.38382
	13.75			  9.29218			  -0.57007			 -0.07029
	14.00			  9.40746			  -0.82130			 0.05362
	14.25			  9.49562			  -0.55917			 -0.14651
	14.50			  9.69988			  -0.39607			 -0.47722
	14.75			  9.79199			  -0.48648			 -0.43480
	15.00			  9.52124			  -1.08276			 -0.49032
	15.25			  9.29804			  -1.11570			 -0.64642
	15.50			  9.49794			  -0.92625			 -0.43262
	15.75			  9.65232			  -0.79155			 -0.67361
	16.00			  9.68257			  -0.50124			 -0.45952
	16.25			  9.86925			  -0.48943			 -0.26180
	16.50			  9.73694			  -0.67797			 -0.02868
	16.75			  9.71160			  -0.53600			 -0.17904
	17.00			  9.71964			  -0.45740			 -0.06719
	17.25			  9.34587			  -0.43945			 -0.27364
	17.50			  9.51988			  -0.42196			 -0.26812
	17.75			  9.41441			  -0.06896			 -0.10472
	18.00			  9.67453			  0.05280			 -0.18818
	18.25			  9.80425			  0.11526			 -0.62464
	18.50			  9.75915			  0.20272			 -0.45670
	18.75			  9.76092			  0.10959			 -0.12817
	19.00			  9.33878			  -0.60460			 -0.23818
	19.25			  9.36958			  -0.63981			 -0.30560
	19.50			  9.12608			  -0.66116			 -0.26123
	19.75			  9.22432			  -0.31565			 -0.24450
	20.00			  9.33184			  -0.31474			 0.06127
	20.25			  9.69415			  -0.06623			 0.17030
	20.50			  9.23686			  -0.36744			 0.12380
	20.75			  9.19258			  -0.33905			 -0.15547
	21.00			  9.07512			  -0.37948			 -0.15507
	21.25			  9.21438			  -0.15119			 0.11190
	21.50			  9.06667			  0.01055			 -0.04087
	21.75			  9.00617			  -0.23910			 0.16656
	22.00			  8.97265			  -0.51078			 -0.10070
	22.25			  9.24694			  -0.34246			 -0.28186
	22.50			  9.09638			  -0.21798			 0.04885
	22.75			  9.09678			  0.10073			 0.13811
	23.00			  9.16028			  0.24656			 0.06575
	23.25			  9.27583			  0.35900			 -0.27065
	23.50			  9.58365			  0.11708			 -0.38865
	23.75			  9.73844			  0.12821			 -0.53791
	24.00			  9.79472			  0.68202			 -0.73091
	24.25			  9.61322			  0.54141			 -0.57935
	24.50			  9.53950			  0.49303			 -0.25893
	24.75			  9.46237			  0.55504			 -0.17088
	25.00			  9.52764			  0.13139			 -0.06983
	25.25			  9.61485			  -0.02557			 -0.11168
	25.50			  9.52751			  -0.14392			 0.18656
	25.75			  9.59373			  0.42374			 -0.16605
	26.00			  9.27093			  0.55186			 -0.08323
	26.25			  9.09665			  1.13225			 -0.32422
	26.50			  9.39220			  1.06092			 -0.05610
	26.75			  9.38334			  0.67248			 -0.24295
	27.00			  9.41618			  0.63227			 -0.12150
	27.25			  9.44084			  0.01895			 0.13248
	27.50			  9.19353			  0.37127			 0.60222
	27.75			  9.34832			  0.75880			 0.23622
	28.00			  9.21724			  0.45146			 0.07408
	28.25			  9.44820			  -0.05919			 -0.01776
	28.50			  9.49385			  -0.38993			 -0.07047
	28.75			  9.27461			  0.19227			 0.05356
	29.00			  9.52914			  0.15729			 0.23697
	29.25			  9.84813			  -0.02830			 0.08173
	29.50			  9.80330			  0.03053			 -0.03322
	29.75			  9.32162			  0.19591			 -0.06466
	30.00			  9.42572			  0.13185			 0.18265
	30.25			  9.61567			  0.16183			 0.09270
	30.50			  9.69184			  -0.13552			 0.23639
	30.75			  9.65682			  -0.17709			 0.39359
	31.00			  9.60831			  -0.09281			 0.15673
	31.25			  9.61798			  0.41534			 0.12788
	31.50			  9.40787			  0.37650			 0.36341
	31.75			  9.66895			  0.59911			 0.42801
	32.00			  9.47096			  0.35174			 0.30818
	32.25			  9.69034			  0.35514			 -0.04891
	32.50			  9.40392			  0.82082			 0.40974
	32.75			  9.44207			  0.48826			 0.20990
	33.00			  9.67385			  0.43601			 0.08161
	33.25			  9.57711			  0.48121			 0.03437
	33.50			  9.60845			  0.83422			 0.02488
	33.75			  9.72113			  0.59161			 0.32600
	34.00			  9.31085			  0.20726			 0.31622
	34.25			  9.02279			  -0.11439			 0.33019
	34.50			  9.33919			  -0.12643			 0.00712
	34.75			  9.54154			  -0.29407			 0.03960
	35.00			  9.43321			  0.13162			 0.01419
	35.25			  9.43826			  0.32857			 -0.14501
	35.50			  9.11518			  0.51506			 0.05368
	35.75			  8.88599			  0.35719			 -0.12926
	36.00			  8.95793			  -0.04147			 -0.04202
	36.25			  8.82140			  0.01532			 -0.17220
	36.50			  8.59085			  0.07256			 -0.43687
	36.75			  8.78134			  0.29313			 -0.20594
	37.00			  8.75722			  0.46872			 0.02799
	37.25			  8.70885			  0.42533			 0.18668
	37.50			  8.49996			  0.09914			 0.08564
	37.75			  8.72206			  0.15933			 0.17507
	38.00			  8.58349			  0.30858			 0.06408
	38.25			  8.78379			  0.18773			 0.21053
	38.50			  8.63118			  0.27223			 0.12661
	38.75			  8.75245			  0.12072			 0.13035
	39.00			  8.96897			  -0.23092			 0.51520
	39.25			  8.99377			  -0.21570			 0.33387
	39.50			  9.01039			  -0.51442			 0.38640
	39.75			  8.95630			  0.05757			 -0.14116
	40.00			  8.88026			  -0.00785			 -0.07478
	40.25			  9.01693			  0.23430			 -0.02477
	40.50			  9.43894			  0.18773			 0.11075
	40.75			  9.59100			  0.26928			 0.28243
	41.00			  9.51143			  0.04575			 0.48342
	41.25			  8.93804			  -0.16073			 0.07586
	41.50			  8.87795			  -0.18231			 -0.08438
	41.75			  8.95017			  -0.00036			 0.15087
	42.00			  9.07062			  0.20931			 -0.00190
	42.25			  9.29218			  -0.05965			 -0.03058
	42.50			  9.23209			  0.14639			 -0.02995
	42.75			  9.11341			  0.28541			 -0.21243
	43.00			  9.27638			  0.11754			 -0.20461
	43.25			  9.23046			  0.63591			 -0.01742
	43.50			  9.25566			  0.40989			 -0.13478
	43.75			  9.10332			  -0.24319			 -0.04799
	44.00			  9.18658			  -0.37062			 -0.12685
	44.25			  9.21342			  -0.33178			 -0.41037
	44.50			  9.25403			  -0.67456			 -0.57849
	44.75			  9.38389			  -0.66207			 -0.87983
	45.00			  9.29791			  -0.92602			 -0.56883
	45.25			  9.60722			  -1.14092			 -0.22243
	45.50			  9.63325			  -1.15318			 -0.35882
	45.75			  9.34505			  -1.01825			 0.05046
	46.00			  9.27338			  -1.15568			 -0.33255
	46.25			  9.32843			  -1.38102			 0.16581
	46.50			  9.17309			  -0.98122			 0.27134
	46.75			  9.13167			  -0.59029			 0.30530
	47.00			  9.25158			  -0.65525			 0.40267
	47.25			  9.12976			  -0.34859			 0.62780
	47.50			  9.43294			  -0.57711			 1.02558
	47.75			  9.65205			  -0.64208			 1.05484
	48.00			  9.53350			  -0.85924			 1.18370
	48.25			  9.45774			  -0.71749			 1.26864
	48.50			  9.56157			  -0.62118			 1.06455
	48.75			  9.56566			  -0.36654			 0.90896
	49.00			  9.69661			  -0.22365			 1.01506
	49.25			  9.89773			  -0.34950			 0.81350
	49.50			  9.85126			  -0.15732			 0.51520
	49.75			  9.83355			  -0.05079			 0.71022
	50.00			  10.01083			  0.00509			 0.47244
	50.25			  9.86925			  0.02985			 0.31306
	50.50			  9.70601			  -0.26659			 0.45618
	50.75			  9.53854			  -0.11598			 0.72821
	51.00			  9.63665			  -0.01149			 0.53578
	51.25			  9.39411			  -0.17209			 0.69820
	51.50			  9.44834			  -0.49806			 0.62826
	51.75			  9.15374			  -0.05874			 0.14225
	52.00			  9.06258			  0.22067			 0.02385
	52.25			  9.42504			  0.20181			 -0.25577
	52.50			  9.68925			  0.10709			 -0.28881
	52.75			  9.77196			  0.10027			 -0.38405
	53.00			  9.76201			  0.17637			 -0.36939
	53.25			  9.73803			  -0.24592			 -0.32525
	53.50			  9.62779			  -0.00626			 -0.60297
	53.75			  9.77796			  0.12185			 -0.88811
	54.00			  9.46305			  -0.06851			 -0.80109
	54.25			  9.38430			  0.01418			 -0.67637
	54.50			  9.42572			  0.23270			 -0.43221
	54.75			  9.45938			  0.37990			 -0.44578
	55.00			  9.41768			  0.43010			 0.03132
	55.25			  9.33511			  0.35446			 -0.23335
	55.50			  9.79485			  0.15956			 0.01804
	55.75			  9.67385			  -0.08236			 0.22892
	56.00			  9.46564			  -0.21593			 0.28105
	56.25			  9.27992			  -0.14324			 0.29346
	56.50			  9.43567			  -0.06464			 -0.12783
	56.75			  9.34941			  -0.04670			 -0.27433
	57.00			  9.54604			  0.19886			 -0.22134
	57.25			  9.52192			  0.32289			 -0.12811
	57.50			  9.48636			  0.15297			 0.49382
	57.75			  9.26616			  0.41534			 0.49037
	58.00			  9.03819			  0.60638			 0.26341
	58.25			  8.99295			  0.55822			 0.26841
	58.50			  9.36236			  0.21158			 0.25536
	58.75			  9.59019			  0.15911			 0.12340
	59.00			  9.51756			  0.29540			 0.16599
	59.25			  9.12949			  0.57867			 0.27335
	59.50			  9.35268			  0.47622			 0.11638
	59.75			  9.26779			  0.21294			 0.02942
	60.00			  9.28769			  0.10504			 -0.22433
	60.25			  9.36181			  -0.24728			 -0.41785
	60.50			  9.16887			  -0.43446			 -0.10432
	60.75			  9.28837			  -0.77928			 0.16455
	61.00			  9.04528			  -0.55917			 0.29703
	61.25			  9.20811			  -0.48943			 0.42727
	61.50			  9.31467			  -0.69796			 0.37968
	61.75			  9.29872			  -0.72862			 0.09506
	62.00			  9.29668			  -0.64094			 0.07316
	62.25			  9.24108			  -0.56189			 0.09328
	62.50			  9.25253			  -0.65389			 0.06529
	62.75			  9.19367			  -0.53123			 0.11190
	63.00			  9.26643			  -0.47875			 -0.18881
	63.25			  9.15374			  -0.46262			 -0.25255
	63.50			  9.04282			  -0.22411			 -0.31359
	63.75			  8.98968			  -0.31429			 -0.18605
	64.00			  9.22719			  -0.46762			 -0.11323
	64.25			  9.18617			  -0.03580			 -0.12059
	64.50			  9.40732			  -0.00218			 0.27415
	64.75			  9.30199			  -0.36086			 0.01488
	65.00			  9.67249			  -0.77951			 0.21001
	65.25			  9.62889			  -0.73998			 0.30364
	65.50			  9.39983			  -0.23433			 0.16995
	65.75			  9.27570			  -0.15551			 0.27375
	66.00			  9.45079			  0.08233			 0.06971
	66.25			  9.62357			  -0.02148			 -0.10576
	66.50			  9.68393			  -0.07396			 -0.09369
	66.75			  9.72672			  -0.09213			 -0.31284
	67.00			  9.73449			  -0.14756			 -0.03500
	67.25			  9.79621			  -0.06737			 0.05696
	67.50			  9.74648			  -0.01126			 0.27484
	67.75			  9.61322			  -0.05260			 0.32766
	68.00			  9.80575			  0.20204			 0.06673
	68.25			  9.44275			  -0.06328			 -0.30939
	68.50			  9.48159			  0.15729			 0.02649
	68.75			  9.66472			  0.37968			 0.13794
	69.00			  9.46428			  0.48644			 -0.01765
	69.25			  9.48458			  0.53051			 0.00276
	69.50			  9.64142			  0.88465			 0.31370
	69.75			  9.61253			  0.82513			 0.03034
	70.00			  9.53732			  0.61478			 0.32134
	70.25			  9.75724			  0.48462			 0.09897
	70.50			  9.77428			  0.58026			 0.23944
	70.75			  9.29000			  0.48031			 -0.20162
	71.00			  9.64415			  0.30767			 -0.32755
	71.25			  9.82238			  0.47463			 -0.40790
	71.50			  9.63052			  0.46259			 0.01299
	71.75			  9.52723			  0.33061			 -0.23260
	72.00			  9.42422			  0.27200			 -0.43003
	72.25			  9.19898			  0.33561			 0.00437
	72.50			  8.90029			  0.17433			 0.04690
	72.75			  9.04255			  0.79583			 0.68654
	73.00			  8.91855			  0.59729			 0.65228
	73.25			  8.66238			  0.57776			 0.44520
	73.50			  8.69658			  0.39898			 0.55170
	73.75			  8.77820			  0.91350			 0.42842
	74.00			  9.18304			  1.02821			 0.54302
	74.25			  9.16641			  1.19403			 0.48055
	74.50			  9.11041			  0.50802			 0.33031
	74.75			  9.19666			  0.65749			 0.24588
	75.00			  9.21329			  0.57321			 0.17857
	75.25			  8.85587			  0.93030			 0.11449
	75.50			  8.91338			  0.43919			 0.35818
	75.75			  9.03519			  0.65840			 0.21817
	76.00			  8.85642			  0.35810			 0.16748
	76.25			  8.93586			  -0.03034			 0.19093
	76.50			  9.12513			  0.07210			 0.38221
	76.75			  9.25716			  0.13889			 0.06558
	77.00			  9.48649			  0.27405			 -0.34819
	77.25			  9.36059			  -0.25228			 -0.00908
	77.50			  9.50352			  -0.23478			 0.35973
	77.75			  9.50707			  -0.14937			 0.33525
	78.00			  9.85849			  -0.00172			 0.42215
	78.25			  10.17121			  0.40739			 0.35335
	78.50			  10.11493			  0.59775			 0.46652
	78.75			  10.17025			  0.47667			 0.20961
	79.00			  9.98521			  0.75426			 -0.12317
	79.25			  9.64237			  0.92394			 0.09891
	79.50			  9.67235			  0.95711			 -0.14869
	79.75			  9.50584			  1.00663			 -0.51946
	80.00			  9.36549			  0.82672			 -0.56090
	80.25			  9.52165			  0.53959			 -0.27255
	80.50			  9.65205			  0.49303			 -0.20984
	80.75			  9.95523			  0.05007			 -0.18536
	81.00			  10.01314			  -0.10599			 -0.19927
	81.25			  9.71786			  -0.30407			 -0.53877
	81.50			  9.88642			  -0.13188			 -0.57406
	81.75			  10.00388			  -0.11485			 -0.66631
	82.00			  9.79213			  -0.18186			 -0.71373
	82.25			  9.84758			  -0.64344			 -0.74327
	82.50			  9.69375			  -0.52963			 -0.55061
	82.75			  9.67603			  -0.44763			 -0.73683
	83.00			  9.97472			  -0.56280			 -0.61378
	83.25			  10.28676			  -0.19708			 -0.52877
	83.50			  10.14314			  -0.03352			 -0.47888
	83.75			  9.99829			  0.16274			 -0.54412
	84.00			  9.76624			  0.14661			 -0.56148
	84.25			  9.66159			  -0.12052			 -0.47411
	84.50			  9.64333			  -0.03307			 -0.05219
	84.75			  9.77114			  -0.13302			 -0.25887
	85.00			  9.53010			  -0.21184			 -0.10271
	85.25			  9.35200			  0.02849			 -0.15133
	85.50			  9.13998			  -0.08395			 -0.23554
	85.75			  9.16491			  -0.23978			 -0.42049
	86.00			  9.14284			  -0.03080			 -0.18341
	86.25			  9.41850			  -0.22365			 -0.35675
	86.50			  9.42844			  -0.10144			 -0.37342
	86.75			  9.38688			  0.21431			 -0.24433
	87.00			  9.56798			  -0.02989			 -0.19266
	87.25			  9.47137			  0.04962			 -0.44980
	87.50			  9.81788			  0.49802			 -0.60975
	87.75			  9.81025			  0.69065			 -0.54826
	88.00			  9.75629			  0.61774			 -0.36876
	88.25			  10.14000			  0.34356			 -0.17519
	88.50			  10.03004			  0.14184			 0.01121
	88.75			  9.81911			  0.13548			 -0.10340
	89.00			  10.01505			  -0.23910			 -0.26180
	89.25			  9.93847			  -0.13166			 -0.14927
	89.50			  9.91476			  -0.16618			 -0.21812
	89.75			  10.01682			  0.17478			 -0.18553
	90.00			  9.84282			  0.33856			 -0.33112
	90.25			  9.68966			  0.15888			 -0.22979
	90.50			  9.82973			  0.10391			 -0.20783
	90.75			  9.60994			  0.20567			 0.02753
	91.00			  9.54944			  0.31812			 0.11144
	91.25			  9.34492			  0.56617			 0.13598
	91.50			  9.21329			  0.48621			 -0.11679
	91.75			  9.28769			  0.26860			 -0.23416
	92.00			  9.38661			  0.34242			 0.09483
	92.25			  9.63270			  -0.11485			 0.02575
	92.50			  9.79199			  -0.11939			 0.07609
	92.75			  9.61117			  -0.06442			 0.18633
	93.00			  9.28319			  -0.25182			 0.02253
	93.25			  9.53187			  0.00055			 -0.06472
	93.50			  9.65396			  -0.34314			 0.17874
	93.75			  9.80139			  -0.19867			 0.33996
	94.00			  9.80603			  0.05121			 0.18225
	94.25			  9.66186			  0.13957			 0.07058
	94.50			  9.70533			  0.16024			 0.06276
	94.75			  9.48663			  0.41307			 0.25846
	95.00			  9.65927			  0.51597			 0.35232
	95.25			  9.78872			  0.44283			 0.40014
	95.50			  9.83873			  0.59161			 0.36853
	95.75			  10.13292			  0.93008			 0.78861
	96.00			  10.23416			  0.71360			 1.20542
	96.25			  10.33785			  0.55936			 0.89391
	96.50			  10.11697			  0.68452			 0.83689
	96.75			  10.02650			  0.92894			 1.01914
	97.00			  9.93847			  1.00095			 0.57883
	97.25			  9.97540			  0.78833			 0.35341
	97.50			  10.03658			  0.90782			 0.23633
	97.75			  10.23457			  0.86193			 -0.05547
	98.00			  10.31265			  0.65363			 0.14001
	98.25			  10.12787			  0.49530			 0.53699
	98.50			  10.05606			  0.68793			 0.39152
	98.75			  10.13060			  0.51279			 0.24703
	99.00			  9.92008			  0.33493			 -0.13053
	99.25			  9.85317			  0.22226			 -0.53004
	99.50			  9.85985			  0.34151			 -0.28738
	99.75			  10.06983			  0.39240			 -0.29008
	100.00			  9.82973			  0.39012			 -0.43101
	100.25			  9.91204			  0.28541			 -0.09622
	100.50			  9.96218			  0.83285			 0.08219
	100.75			  9.99883			  0.68020			 0.13857
	101.00			  10.12420			  0.52778			 0.29071
	101.25			  9.90495			  0.64545			 0.16518
	101.50			  9.86544			  0.73381			 0.05782
	101.75			  9.67494			  0.62432			 -0.23709
	102.00			  9.20034			  0.90441			 -0.03914
	102.25			  9.39983			  0.56049			 -0.33962
	102.50			  9.28046			  0.65931			 -0.37658
	102.75			  9.65586			  0.79106			 -0.18392
	103.00			  9.97581			  0.52846			 0.33933
	103.25			  10.12733			  0.39626			 0.11569
	103.50			  10.02990			  0.43397			 0.04701
	103.75			  10.31673			  0.16070			 -0.31922
	104.00			  10.29030			  -0.02762			 -0.14179
	104.25			  10.09299			  -0.27817			 -0.07139
	104.50			  10.04980			  -0.33292			 -0.13599
	104.75			  10.16249			  -0.22161			 0.15984
	105.00			  9.79294			  0.05643			 0.03741
	105.25			  9.55694			  0.12685			 0.11506
	105.50			  9.27229			  0.23180			 0.17771
	105.75			  9.08575			  0.12344			 -0.09524
	106.00			  9.04623			  0.04167			 -0.17783
	106.25			  9.15674			  0.35151			 -0.45227
	106.50			  9.32352			  0.17296			 -0.50262
	106.75			  9.34819			  0.12344			 -0.25697
	107.00			  9.43389			  0.16001			 -0.27082
	107.25			  9.39888			  -0.11575			 -0.33796
	107.50			  9.54658			  -0.29725			 -0.27807
	107.75			  9.29164			  -0.56439			 -0.24806
	108.00			  9.04841			  -0.71045			 -0.18341
	108.25			  9.18999			  -0.71749			 0.39686
	108.50			  8.94540			  -0.27272			 0.36496
	108.75			  8.56223			  -0.35700			 0.05023
	109.00			  8.80845			  -0.42537			 0.31847
	109.25			  8.57531			  -0.36154			 0.35858
	109.50			  8.69972			  -0.23001			 0.12001
	109.75			  8.81391			  -0.48193			 -0.10570
	110.00			  8.58867			  -0.22411			 -0.04443
	110.25			  8.90929			  0.04371			 0.22610
	110.50			  8.94172			  -0.05124			 -0.09196
	110.75			  8.72452			  0.08006			 -0.00276
	111.00			  8.54642			  -0.01535			 -0.14633
	111.25			  8.43087			  0.34628			 -0.03230
	111.50			  8.87550			  0.59161			 -0.04087
	111.75			  9.03206			  0.28518			 -0.02420
	112.00			  9.13616			  0.29199			 -0.19404
	112.25			  9.27556			  0.19454			 -0.15806
	112.50			  9.07634			  0.05620			 -0.11357
	112.75			  8.71076			  0.01350			 0.24162
	113.00			  9.36672			  -0.30952			 -0.02207
	113.25			  9.49521			  -0.24751			 0.10558
	113.50			  9.42490			  0.03780			 0.10437
	113.75			  9.15919			  0.22634			 0.07242
	114.00			  8.81350			  0.44646			 0.02023
	114.25			  8.67356			  0.48780			 0.12748
	114.50			  9.13821			  -0.33905			 -0.24525
	114.75			  9.19149			  -0.47512			 -0.13461
	115.00			  9.12812			  -0.60301			 -0.12122
	115.25			  9.10741			  -0.85538			 -0.23645
	115.50			  9.08139			  -0.43150			 -0.18059
	115.75			  9.06980			  -0.38062			 -0.38325
	116.00			  8.90970			  -0.27476			 -0.38054
	116.25			  8.95875			  -0.33655			 -0.56142
	116.50			  8.87100			  -0.59687			 -0.59642
	116.75			  8.81718			  -0.63640			 -0.44848
	117.00			  8.71512			  -0.84425			 -0.64229
	117.25			  8.92891			  -0.55758			 -0.53205
	117.50			  8.96597			  -0.50919			 -0.46601
	117.75			  9.26139			  -0.25795			 -0.48394
	118.00			  9.17650			  -0.26023			 -0.12507
	118.25			  8.84892			  -0.22184			 -0.41376
	118.50			  8.99077			  -0.18913			 -0.60631
	118.75			  9.07948			  -0.78587			 -0.70183
	119.00			  8.91051			  -0.83289			 -0.71241
	119.25			  9.00372			  -0.62504			 -0.69620
	119.50			  9.37803			  -0.49193			 -0.64901
	119.75			  9.45324			  -0.41719			 -0.88897
	120.00			  9.66826			  -0.47898			 -0.55964
	120.25			  9.63216			  -0.06737			 -0.65303
	120.50			  9.58337			  -0.07600			 -0.76206
	120.75			  9.08697			  -0.42878			 -0.85299
	121.00			  9.38648			  -0.33564			 -0.93702
	121.25			  9.61839			  -0.00059			 -0.72149
	121.50			  9.67862			  0.12003			 -0.55148
	121.75			  9.21588			  0.05211			 -0.33347
	122.00			  9.18535			  -0.03216			 -0.41739
	122.25			  9.20102			  -0.01149			 -0.09782
	122.50			  9.38321			  -0.44581			 0.00776
	122.75			  9.29682			  -0.40538			 0.05655
	123.00			  9.10891			  -0.29748			 -0.24456
	123.25			  8.69631			  -0.35700			 -0.05098
	123.50			  8.99854			  -0.12098			 0.02816
	123.75			  8.97619			  -0.06760			 0.26743
	124.00			  9.05264			  -0.01285			 0.20559
	124.25			  9.24667			  -0.18049			 0.51670
	124.50			  9.11736			  -0.35904			 0.29640
	124.75			  9.21833			  -0.37540			 -0.03880
	125.00			  9.02007			  -0.38153			 -0.04001
	125.25			  8.76253			  -0.35404			 0.00287
	125.50			  9.04582			  -0.02966			 0.10322
	125.75			  9.09147			  -0.08350			 0.21076
	126.00			  9.22610			  -0.33269			 0.23542
	126.25			  9.51974			  -0.17845			 0.46577
	126.50			  9.84840			  -0.22070			 0.25478
	126.75			  9.51265			  0.02735			 0.30387
	127.00			  9.39901			  0.01850			 0.14432
	127.25			  9.82973			  0.14843			 0.49658
	127.50			  9.71841			  0.21385			 0.42083
	127.75			  9.96872			  0.33038			 0.47043
	128.00			  9.81352			  0.49098			 0.56434
	128.25			  9.75370			  0.63659			 0.25519
	128.50			  9.53568			  0.58253			 0.18702
	128.75			  9.35772			  0.52619			 0.19691
	129.00			  9.23373			  0.56276			 0.10656
	129.25			  9.23591			  0.49507			 0.51796
	129.50			  9.26834			  0.47281			 0.83189
	129.75			  9.22950			  0.67884			 0.49825
	130.00			  9.09542			  0.55254			 0.51532
	130.25			  8.80137			  0.49257			 0.56877
	130.50			  9.04133			  0.54959			 0.48043
	130.75			  9.32584			  0.59048			 0.26507
	131.00			  8.99990			  0.33697			 0.34864
	131.25			  9.29804			  0.37831			 0.09138
	131.50			  9.21656			  0.37990			 0.06971
	131.75			  9.17323			  0.50938			 0.17846
	132.00			  9.27188			  0.87261			 0.14035
	132.25			  9.17146			  0.63773			 0.06874
	132.50			  8.93463			  0.74653			 0.26622
	132.75			  8.86160			  0.31743			 0.39847
	133.00			  8.46303			  0.36264			 0.60084
	133.25			  8.32200			  0.24611			 0.71458
	133.50			  8.36438			  0.43851			 0.60975
	133.75			  8.65843			  0.51256			 0.86672
	134.00			  8.79960			  0.65363			 1.13220
	134.25			  8.35784			  0.65136			 1.25048
	134.50			  8.43210			  0.56413			 0.93908
	134.75			  8.67546			  0.60888			 0.50181
	135.00			  8.91719			  0.18046			 0.34278
	135.25			  9.16001			  -0.09236			 0.65734
	135.50			  9.20974			  -0.20912			 0.63734
	135.75			  9.20021			  -0.25523			 0.73217
	136.00			  8.87004			  -0.13552			 0.63354
	136.25			  8.92741			  0.09323			 0.78465
	136.50			  9.17704			  0.01577			 0.56544
	136.75			  9.35909			  -0.07941			 0.44181
	137.00			  9.25526			  -0.39720			 0.53383
	137.25			  9.15688			  -0.25046			 0.41577
	137.50			  8.95344			  -0.24183			 0.21380
	137.75			  9.04732			  -0.66025			 0.48991
	138.00			  8.69250			  -0.66388			 0.47382
	138.25			  8.73147			  -0.84743			 0.88603
	138.50			  8.90643			  -0.63345			 0.98207
	138.75			  9.06694			  -0.54122			 0.57463
	139.00			  9.03697			  -0.37630			 0.80344
	139.25			  9.18222			  -0.23047			 0.76614
	139.50			  9.31412			  -0.04216			 0.91851
	139.75			  9.46837			  0.18023			 0.93000
	140.00			  9.44520			  0.32311			 0.50704
	140.25			  9.11886			  0.11436			 0.54745
	140.50			  8.64508			  0.18546			 0.47152
	140.75			  8.85642			  -0.01967			 0.65228
	141.00			  8.75640			  0.10936			 0.37123
	141.25			  8.85274			  0.00328			 0.36106
	141.50			  8.89839			  -0.14097			 0.57113
	141.75			  8.91597			  -0.00490			 0.69895
	142.00			  8.93749			  -0.15687			 0.63291
	142.25			  8.85179			  -0.32883			 0.58084
	142.50			  8.88871			  -0.47103			 0.65699
	142.75			  8.65339			  -0.61664			 0.19708
	143.00			  8.43060			  -0.73521			 0.05753
	143.25			  8.62627			  -0.57211			 -0.01213
	143.50			  8.89307			  -0.27408			 0.05161
	143.75			  9.03860			  -0.17345			 0.07380
	144.00			  9.04051			  -0.73158			 0.37554
	144.25			  9.18426			  -0.83630			 0.50750
	144.50			  9.34246			  -0.88264			 0.33738
	144.75			  9.27747			  -0.64117			 0.13259
	145.00			  9.51225			  -0.74657			 0.40589
	145.25			  9.35241			  -0.87741			 -0.03523
	145.50			  9.26779			  -0.48193			 -0.18174
	145.75			  9.11395			  -0.57166			 0.11771
	146.00			  9.15647			  -0.58529			 0.34910
	146.25			  9.21629			  -0.74135			 0.07851
	146.50			  9.18713			  -0.14892			 -0.22088
	146.75			  8.95589			  -0.11280			 0.13713
	147.00			  9.02947			  -0.51442			 0.01925
	147.25			  9.10360			  -0.56144			 0.12811
	147.50			  9.14420			  -0.76906			 -0.19835
	147.75			  8.95902			  -0.68592			 -0.09581
	148.00			  9.33006			  -0.16459			 -0.34060
	148.25			  9.39710			  -0.39357			 -0.33979
	148.50			  9.43103			  -0.48716			 -0.31962
	148.75			  9.65954			  -0.40833			 -0.18208
	149.00			  9.52846			  -0.29907			 -0.51624
	149.25			  9.55776			  0.02667			 -0.40118
	149.50			  9.46578			  -0.08622			 -0.41348
	149.75			  9.30908			  0.18477			 -0.32272
	150.00			  9.15906			  -0.17459			 0.07690
	150.25			  9.30077			  -0.33178			 -0.09053
	150.50			  9.33415			  -0.40583			 0.09414
	150.75			  9.32897			  -0.54122			 -0.04604
	151.00			  9.25744			  -0.38448			 0.06391
	151.25			  9.28646			  -0.35859			 0.30571
	151.50			  9.32611			  -0.41651			 0.31829
	151.75			  9.20647			  -0.49851			 0.42721
	152.00			  8.96924			  -0.10349			 0.03224
	152.25			  9.00767			  -0.22047			 -0.10541
	152.50			  8.97905			  -0.14915			 0.05414
	152.75			  8.80805			  -0.34359			 0.30898
	153.00			  9.01639			  -0.13052			 0.49112
	153.25			  9.35636			  -0.12779			 0.34738
	153.50			  9.59346			  -0.02603			 -0.36175
	153.75			  10.01955			  -0.09009			 -0.27680
	154.00			  10.25828			  -0.36472			 -0.16151
	154.25			  10.11016			  -0.37267			 -0.20869
	154.50			  10.07977			  0.17342			 -0.08731
	154.75			  10.11398			  -0.32020			 -0.51538
	155.00			  10.07868			  -0.84516			 -0.42336
	155.25			  9.82510			  -0.62868			 -0.45135
	155.50			  9.68325			  -0.47807			 -0.52440
	155.75			  9.23877			  -0.37471			 -0.30675
	156.00			  8.79946			  0.00055			 -0.05225
	156.25			  8.92836			  -0.12189			 -0.48705
	156.50			  9.14448			  -0.50079			 -0.65890
	156.75			  9.21274			  -0.55780			 -0.34899
	157.00			  8.94553			  -0.80268			 -0.53877
	157.25			  9.14679			  -0.76383			 -0.20846
	157.50			  9.46087			  -0.73317			 -0.03512
	157.75			  9.80126			  -0.37540			 -0.16306
	158.00			  9.53568			  -0.31906			 0.06770
	158.25			  9.60436			  -0.43991			 0.09213
	158.50			  9.72686			  -0.48375			 0.19719
	158.75			  9.83518			  -0.32201			 -0.22996
	159.00			  9.65123			  -0.06555			 -0.45704
	159.25			  9.39819			  -0.28976			 -0.44009
	159.50			  9.36549			  -0.21298			 -0.08196
	159.75			  9.33470			  -0.30498			 -0.37566
	160.00			  9.23754			  -0.49125			 -0.37325
	160.25			  9.30431			  -0.67592			 -0.41152
	160.50			  9.58719			  -0.36018			 -0.30623
	160.75			  9.71214			  -0.10190			 -0.30031
	161.00			  10.00061			  -0.07623			 -0.34962
	161.25			  9.88683			  0.12253			 -0.14513
	161.50			  9.61431			  0.22498			 -0.20571
	161.75			  9.45611			  0.19341			 -0.27088
	162.00			  9.53200			  0.14002			 -0.05644
	162.25			  9.83328			  0.07483			 -0.32778
	162.50			  9.67031			  -0.27863			 -0.30468
	162.75			  10.03576			  -0.27045			 -0.21243
	163.00			  10.21290			  -0.27817			 -0.14409
	163.25			  10.35066			  -0.46285			 -0.14668
	163.50			  9.80998			  -0.60505			 -0.11139
	163.75			  10.00469			  -0.41219			 -0.51176
	164.00			  9.92266			  -0.33314			 -0.62441
	164.25			  9.81911			  -0.03375			 -0.46204
	164.50			  9.68611			  -0.24592			 -0.32755
	164.75			  9.93670			  -0.74634			 -0.36158
	165.00			  9.94447			  -0.49920			 -0.55659
	165.25			  10.00456			  -0.08395			 -0.39020
	165.50			  10.13005			  -0.15324			 -0.36560
	165.75			  10.18715			  -0.30316			 -0.50026
	166.00			  10.37464			  -0.23478			 -0.42400
	166.25			  10.15812			  -0.26681			 -0.33583
	166.50			  10.35093			  -0.16300			 -0.81057
	166.75			  10.27122			  -0.33542			 -0.85724
	167.00			  10.33036			  -0.32133			 -0.75442
	167.25			  10.30828			  -0.36086			 -0.80086
	167.50			  10.06697			  -0.22138			 -0.25795