--------------TurbSim v2.00.* User Time Series Input File-----------------------
     Time series input from low-res turbsim run
--------------------------------------------------------------------------------
          3 nComp - Number of velocity components in the file
          1 nPoints - Number of time series points contained in this file (-)
          1 RefPtID - Index of the reference point (1-nPoints)
     Pointyi Pointzi ! nPoints listed in order of increasing height
       (m)     (m)
       -2.81586   94.00000
--------Time Series-------------------------------------------------------------
Elapsed Time         Point01u             Point01v           Point01w
         (s)            (m/s)                (m/s)              (m/s)
	0.00			  10.32552			  -0.30306			 0.51497
	0.25			  10.41318			  -0.64421			 0.25310
	0.50			  10.29239			  -0.66270			 0.14956
	0.75			  10.08019			  -0.59160			 0.07636
	1.00			  10.31339			  -0.41321			 0.04733
	1.25			  10.29764			  -0.41568			 0.33236
	1.50			  10.30889			  -0.38855			 0.41754
	1.75			  10.18160			  -0.32382			 0.58631
	2.00			  10.09045			  -0.87253			 0.51073
	2.25			  10.02355			  -0.84109			 0.28763
	2.50			  9.84487			  -0.67236			 0.27248
	2.75			  9.67044			  -0.52768			 0.42257
	3.00			  9.78297			  -0.45349			 0.26559
	3.25			  9.70282			  -0.59324			 0.17524
	3.50			  9.55903			  -0.68901			 0.04514
	3.75			  9.70382			  -0.39903			 -0.07685
	4.00			  9.92064			  -0.60454			 0.14462
	4.25			  9.97216			  -0.36060			 0.14103
	4.50			  10.02980			  -0.33080			 0.32653
	4.75			  9.85162			  -0.47446			 0.37332
	5.00			  9.64205			  -0.66147			 0.19206
	5.25			  9.34271			  -0.74532			 0.20646
	5.50			  9.33608			  -0.91034			 0.33418
	5.75			  9.56740			  -0.83595			 0.46684
	6.00			  9.28581			  -0.75272			 0.43855
	6.25			  9.63593			  -0.68387			 0.50654
	6.50			  9.50076			  -0.61872			 0.48058
	6.75			  9.31482			  -0.52439			 0.49172
	7.00			  9.35571			  -0.51371			 0.40617
	7.25			  9.66669			  -0.51597			 0.36255
	7.50			  9.79273			  -0.38876			 0.08549
	7.75			  9.83161			  -0.44918			 0.03223
	8.00			  9.88001			  -0.56118			 0.26964
	8.25			  10.05431			  -0.41362			 0.26801
	8.50			  9.89851			  -0.41835			 0.16317
	8.75			  9.90976			  -0.90048			 0.37574
	9.00			  9.84699			  -0.89822			 0.15548
	9.25			  10.12283			  -0.79916			 0.10119
	9.50			  9.91927			  -0.78889			 0.01974
	9.75			  9.89501			  -0.91589			 0.05064
	10.00			  9.83299			  -0.64606			 -0.07829
	10.25			  9.96491			  -0.74367			 0.40789
	10.50			  9.79698			  -0.38547			 0.38562
	10.75			  9.78297			  -0.20832			 0.40812
	11.00			  9.75471			  0.05165			 0.21424
	11.25			  10.00892			  0.22140			 0.21596
	11.50			  9.70007			  0.35868			 0.29820
	11.75			  9.62167			  0.24956			 0.27616
	12.00			  9.85275			  0.42321			 0.37509
	12.25			  9.87138			  0.06151			 0.22603
	12.50			  9.75797			  -0.15078			 0.34112
	12.75			  9.85987			  0.11310			 0.15790
	13.00			  9.92039			  0.26949			 0.09043
	13.25			  10.11533			  0.37553			 0.33655
	13.50			  10.11383			  0.14331			 0.30370
	13.75			  10.28751			  0.27648			 0.37308
	14.00			  10.21461			  0.17701			 0.43389
	14.25			  10.13171			  0.11680			 0.33515
	14.50			  10.14159			  -0.23874			 0.13815
	14.75			  10.38142			  -0.09385			 0.22486
	15.00			  10.21574			  0.14516			 0.10460
	15.25			  10.26088			  0.15338			 0.06145
	15.50			  10.11633			  0.21051			 0.31712
	15.75			  10.19060			  -0.04473			 0.07491
	16.00			  10.22387			  0.06521			 -0.04167
	16.25			  10.30052			  0.36546			 0.01411
	16.50			  10.27188			  0.39547			 0.26712
	16.75			  10.12746			  0.47706			 0.24098
	17.00			  10.19548			  0.55926			 0.28944
	17.25			  9.90501			  0.43390			 0.46441
	17.50			  9.97941			  0.38930			 0.60313
	17.75			  9.88938			  0.33299			 0.56427
	18.00			  9.86112			  0.26682			 0.61357
	18.25			  9.79235			  0.24832			 0.66468
	18.50			  9.85000			  0.36834			 0.27626
	18.75			  9.96191			  0.21503			 0.14579
	19.00			  9.73396			  0.19016			 0.33930
	19.25			  9.64268			  0.37266			 0.61035
	19.50			  9.67506			  0.62667			 0.35268
	19.75			  9.77497			  0.57919			 0.01010
	20.00			  9.67431			  0.47110			 0.12463
	20.25			  9.84387			  0.15358			 0.26684
	20.50			  9.82261			  -0.19208			 -0.02196
	20.75			  9.55202			  0.21750			 0.07436
	21.00			  9.67231			  0.37245			 0.30077
	21.25			  9.81536			  0.25757			 0.26927
	21.50			  9.85862			  0.05864			 0.22179
	21.75			  9.80123			  0.16817			 0.25291
	22.00			  9.81874			  0.22510			 0.31013
	22.25			  9.63968			  0.27155			 0.04738
	22.50			  9.69507			  0.04240			 0.09761
	22.75			  9.83562			  -0.03302			 0.11816
	23.00			  9.68319			  0.02267			 -0.01907
	23.25			  9.73058			  -0.21120			 -0.01092
	23.50			  9.68457			  -0.31210			 0.05199
	23.75			  9.80786			  -0.18140			 0.15408
	24.00			  9.65568			  -0.68572			 0.19168
	24.25			  9.70645			  -0.24100			 0.27108
	24.50			  9.68944			  -0.24716			 0.13199
	24.75			  9.83662			  -0.34848			 0.01988
	25.00			  10.06832			  -0.28867			 -0.04316
	25.25			  9.99667			  -0.41486			 0.04738
	25.50			  9.81799			  -0.35711			 0.33888
	25.75			  9.83562			  -0.07083			 0.39536
	26.00			  9.92539			  -0.06693			 0.29900
	26.25			  9.85362			  0.03069			 0.12869
	26.50			  10.11208			  -0.00877			 0.01662
	26.75			  10.23137			  0.06665			 -0.04749
	27.00			  10.25225			  -0.11337			 -0.23202
	27.25			  10.41193			  -0.02747			 -0.39305
	27.50			  10.27851			  0.17023			 -0.33807
	27.75			  10.32602			  0.12625			 -0.34170
	28.00			  10.18810			  -0.20030			 -0.09968
	28.25			  10.28764			  -0.04103			 -0.31896
	28.50			  10.56210			  0.10344			 -0.06082
	28.75			  10.73453			  0.14886			 0.06541
	29.00			  10.67714			  0.10077			 -0.09954
	29.25			  10.52896			  0.15276			 -0.37274
	29.50			  10.55622			  0.33320			 0.02231
	29.75			  10.55360			  0.18523			 0.11093
	30.00			  10.40030			  0.24606			 0.24746
	30.25			  10.33928			  0.21750			 -0.15490
	30.50			  10.52771			  0.47110			 -0.17121
	30.75			  10.57948			  0.42136			 0.16354
	31.00			  10.59999			  0.52247			 0.20669
	31.25			  10.68189			  0.22325			 0.37597
	31.50			  10.61987			  0.02822			 0.12878
	31.75			  10.62287			  0.07590			 0.13442
	32.00			  10.73853			  0.41438			 0.13321
	32.25			  10.53859			  0.25634			 -0.15681
	32.50			  10.69427			  0.13838			 -0.18085
	32.75			  10.81493			  0.03829			 -0.32069
	33.00			  10.52809			  0.33361			 -0.28733
	33.25			  10.81193			  0.36855			 -0.20098
	33.50			  10.75729			  0.37101			 -0.08114
	33.75			  10.68051			  0.05782			 0.05772
	34.00			  10.65138			  0.41294			 0.02645
	34.25			  10.76204			  0.49555			 -0.11799
	34.50			  10.74466			  0.60817			 -0.13272
	34.75			  10.54147			  0.49946			 0.13819
	35.00			  10.59886			  0.56974			 0.14830
	35.25			  10.32727			  0.37081			 0.17500
	35.50			  10.38054			  0.21709			 0.07957
	35.75			  10.59236			  0.14927			 0.12351
	36.00			  10.77054			  0.11063			 0.14094
	36.25			  10.85107			  -0.03836			 0.36852
	36.50			  11.02525			  -0.18181			 0.48808
	36.75			  11.12978			  -0.39616			 0.38557
	37.00			  10.90108			  -0.12262			 0.54712
	37.25			  10.70552			  0.20393			 0.60537
	37.50			  10.80443			  0.13920			 0.44125
	37.75			  10.54534			  0.11063			 0.46297
	38.00			  10.43831			  0.11248			 0.40393
	38.25			  10.51033			  0.14372			 0.37201
	38.50			  10.15947			  0.17598			 0.38557
	38.75			  10.52784			  0.07015			 0.32709
	39.00			  10.68764			  -0.01596			 0.05958
	39.25			  10.79843			  0.00274			 0.00446
	39.50			  10.71802			  0.18626			 -0.52040
	39.75			  10.64888			  0.06871			 -0.15877
	40.00			  10.67176			  0.04980			 0.02026
	40.25			  10.69427			  0.06932			 -0.12182
	40.50			  11.07539			  0.21030			 -0.26850
	40.75			  11.24482			  0.26189			 -0.28425
	41.00			  11.01612			  0.14249			 -0.21189
	41.25			  11.06226			  0.41725			 0.01788
	41.50			  11.20581			  0.53213			 -0.07890
	41.75			  11.18392			  0.59029			 0.33338
	42.00			  11.23744			  0.66654			 0.34275
	42.25			  11.04038			  0.78861			 0.35375
	42.50			  10.81393			  0.63509			 0.35146
	42.75			  10.82881			  0.56604			 0.39321
	43.00			  10.82156			  0.03172			 0.58407
	43.25			  10.80968			  -0.01473			 0.69665
	43.50			  10.71615			  0.06480			 0.31106
	43.75			  10.39517			  0.08720			 0.21359
	44.00			  10.48257			  -0.01391			 0.03386
	44.25			  10.32227			  0.08392			 0.20678
	44.50			  10.57173			  0.29600			 0.19159
	44.75			  10.71927			  0.33567			 0.19224
	45.00			  10.43743			  -0.01678			 0.31451
	45.25			  10.41955			  0.39074			 0.11937
	45.50			  10.61999			  0.30772			 0.13647
	45.75			  10.43918			  0.09316			 0.19681
	46.00			  10.29789			  0.06439			 0.22598
	46.25			  10.13746			  -0.07351			 0.11881
	46.50			  10.16047			  -0.13228			 0.21484
	46.75			  10.29189			  0.24462			 0.25608
	47.00			  10.15947			  0.41438			 -0.08873
	47.25			  9.91227			  0.23723			 0.05120
	47.50			  9.95590			  0.13180			 -0.16916
	47.75			  9.70645			  -0.04145			 -0.46146
	48.00			  9.47575			  0.07693			 -0.67174
	48.25			  9.32470			  0.18009			 -0.53783
	48.50			  9.49901			  -0.06179			 -0.50651
	48.75			  9.60379			  -0.12098			 -0.51024
	49.00			  9.74471			  -0.16064			 -0.69686
	49.25			  9.55465			  0.00233			 -0.47916
	49.50			  9.50313			  0.04651			 -0.33602
	49.75			  9.91102			  -0.02521			 -0.31822
	50.00			  9.93352			  0.17044			 -0.37339
	50.25			  9.85625			  0.68072			 -0.27409
	50.50			  10.05856			  0.39752			 0.00115
	50.75			  9.97816			  -0.04186			 -0.09852
	51.00			  9.68544			  -0.12201			 -0.44659
	51.25			  9.60392			  -0.11913			 -0.39645
	51.50			  9.95453			  0.10036			 -0.56835
	51.75			  10.16397			  -0.07186			 -0.45139
	52.00			  10.07869			  -0.19537			 -0.37656
	52.25			  10.16372			  -0.35547			 -0.06865
	52.50			  10.06857			  -0.35547			 -0.32810
	52.75			  10.18848			  -0.28025			 -0.32908
	53.00			  10.11533			  -0.27162			 -0.28341
	53.25			  10.12221			  -0.39574			 0.02510
	53.50			  10.14034			  -0.50097			 0.20063
	53.75			  10.18110			  -0.69476			 0.27188
	54.00			  10.19461			  -0.33594			 0.22826
	54.25			  10.35078			  -0.44856			 0.24122
	54.50			  9.98104			  -0.66024			 0.15529
	54.75			  10.04056			  -0.59201			 0.19080
	55.00			  10.49820			  -0.56365			 0.09127
	55.25			  10.48032			  -0.13105			 0.13130
	55.50			  10.33978			  -0.28559			 0.09062
	55.75			  10.43918			  -0.41979			 -0.12843
	56.00			  10.49920			  -0.47815			 -0.02033
	56.25			  10.79780			  -0.47014			 -0.08831
	56.50			  10.92872			  -0.55604			 0.22141
	56.75			  10.80568			  -0.54967			 0.49521
	57.00			  10.58661			  -0.60475			 0.55900
	57.25			  10.71252			  -0.70565			 0.50472
	57.50			  10.74791			  -0.61852			 0.28702
	57.75			  10.96548			  -0.72744			 0.18637
	58.00			  10.68201			  -0.49460			 0.29299
	58.25			  10.59874			  -0.34478			 0.36661
	58.50			  10.59699			  -0.43294			 0.35715
	58.75			  10.27013			  -0.53672			 0.52382
	59.00			  10.39179			  -0.51700			 0.15916
	59.25			  10.38729			  -0.57577			 -0.23216
	59.50			  10.22474			  -0.54618			 -0.22353
	59.75			  10.29039			  -0.49254			 0.02631
	60.00			  10.06519			  -0.26216			 0.21820
	60.25			  10.19411			  -0.49809			 0.29606
	60.50			  10.23787			  -0.37766			 0.12174
	60.75			  10.18910			  -0.64359			 0.26605
	61.00			  10.34891			  -0.83060			 0.04738
	61.25			  10.47557			  -0.83307			 -0.10728
	61.50			  10.45882			  -0.62345			 -0.03510
	61.75			  10.55510			  -0.78005			 0.26661
	62.00			  10.69252			  -0.59612			 -0.03053
	62.25			  10.79342			  -0.60454			 -0.14772
	62.50			  10.80843			  -0.67873			 -0.06501
	62.75			  10.94972			  -0.50980			 -0.01064
	63.00			  11.00849			  -0.70298			 -0.04176
	63.25			  11.06389			  -0.79464			 -0.20639
	63.50			  11.14091			  -0.65263			 -0.43937
	63.75			  11.08177			  -0.33471			 -0.73237
	64.00			  10.92959			  -0.51515			 -0.79094
	64.25			  10.70902			  -0.66147			 -0.70301
	64.50			  10.76091			  -0.37684			 -0.42940
	64.75			  10.86220			  -0.57022			 -0.38578
	65.00			  10.62762			  -0.67216			 -0.39436
	65.25			  10.86282			  -0.47898			 -0.30615
	65.50			  11.18017			  -0.13557			 -0.19096
	65.75			  11.01900			  -0.43418			 0.07231
	66.00			  10.86257			  -0.27943			 0.06629
	66.25			  10.62412			  -0.37745			 0.32355
	66.50			  10.29914			  -0.37972			 0.34955
	66.75			  10.47757			  -0.39616			 0.20743
	67.00			  10.54634			  -0.60208			 0.14989
	67.25			  10.65675			  -0.60290			 0.34079
	67.50			  10.68576			  -0.60763			 0.21899
	67.75			  10.93822			  -0.89123			 0.06135
	68.00			  10.85182			  -0.82177			 -0.00202
	68.25			  10.91234			  -0.90418			 -0.03319
	68.50			  10.77679			  -0.80512			 0.13190
	68.75			  10.95873			  -0.70072			 0.13968
	69.00			  10.56960			  -0.72970			 0.19756
	69.25			  10.41968			  -0.77224			 0.25431
	69.50			  10.62424			  -0.68243			 0.48249
	69.75			  10.62074			  -0.74593			 0.38147
	70.00			  10.49545			  -0.85547			 0.62158
	70.25			  10.55485			  -0.69641			 0.66897
	70.50			  10.56723			  -0.62181			 0.73071
	70.75			  10.45644			  -0.60865			 0.66189
	71.00			  10.54009			  -0.89061			 0.37173
	71.25			  10.44869			  -0.67133			 -0.11981
	71.50			  10.49495			  -0.28066			 -0.07107
	71.75			  10.59123			  -0.16167			 -0.11921
	72.00			  10.71327			  -0.24963			 -0.14586
	72.25			  10.63287			  0.14228			 0.01644
	72.50			  10.35628			  0.31429			 0.23241
	72.75			  10.32327			  0.22531			 0.35095
	73.00			  10.42418			  0.32436			 0.40533
	73.25			  10.59523			  -0.04103			 0.10469
	73.50			  10.62537			  -0.11502			 -0.04167
	73.75			  10.17210			  -0.44507			 -0.17880
	74.00			  10.19811			  -0.34992			 -0.15802
	74.25			  10.46194			  -0.22620			 -0.03235
	74.50			  10.67351			  -0.16290			 -0.07797
	74.75			  10.66101			  -0.05604			 0.13391
	75.00			  10.67726			  -0.15407			 0.20879
	75.25			  10.76491			  -0.21449			 0.20715
	75.50			  10.61812			  -0.23236			 0.36148
	75.75			  10.52621			  0.12995			 0.29415
	76.00			  10.62424			  0.17866			 0.15287
	76.25			  10.32652			  0.03994			 -0.11725
	76.50			  10.24350			  -0.21818			 0.01075
	76.75			  10.17998			  -0.00363			 -0.15070
	77.00			  10.19936			  -0.15838			 -0.13892
	77.25			  10.26926			  -0.13762			 -0.10653
	77.50			  10.39204			  -0.17153			 -0.15835
	77.75			  10.44294			  -0.15674			 -0.10304
	78.00			  10.42918			  -0.00692			 -0.12498
	78.25			  10.25012			  0.12892			 -0.27656
	78.50			  10.22299			  0.25243			 0.12463
	78.75			  10.31514			  -0.06878			 0.13400
	79.00			  10.04281			  -0.25579			 0.09747
	79.25			  10.07507			  -0.28251			 0.02128
	79.50			  10.24162			  -0.36533			 -0.06301
	79.75			  10.38279			  -0.26155			 -0.17363
	80.00			  10.22974			  -0.29093			 -0.28197
	80.25			  10.15772			  -0.45781			 -0.12680
	80.50			  10.08557			  -0.33615			 -0.34823
	80.75			  10.09445			  -0.22949			 -0.30615
	81.00			  10.05656			  -0.52378			 0.06597
	81.25			  10.32752			  -0.35690			 0.00213
	81.50			  10.58323			  -0.35403			 -0.31444
	81.75			  10.37154			  -0.29258			 -0.55852
	82.00			  10.22362			  -0.33060			 -0.23668
	82.25			  10.06369			  -0.52234			 -0.37120
	82.50			  10.42481			  -0.24100			 -0.10210
	82.75			  10.39242			  -0.19208			 0.01793
	83.00			  10.30214			  -0.32423			 -0.01245
	83.25			  10.45131			  -0.43849			 0.12310
	83.50			  10.44481			  -0.41753			 -0.10113
	83.75			  10.19998			  -0.54310			 -0.31458
	84.00			  10.19436			  -0.54844			 -0.52184
	84.25			  10.49933			  -0.65366			 -0.50386
	84.50			  10.71777			  -0.47898			 -0.47124
	84.75			  10.66963			  -0.62879			 -0.20858
	85.00			  10.72778			  -0.55584			 -0.30657
	85.25			  10.90458			  -0.59098			 -0.39552
	85.50			  10.92484			  -0.52481			 -0.52674
	85.75			  10.80880			  -0.38280			 -0.49538
	86.00			  10.70515			  -0.30799			 -0.62622
	86.25			  10.84644			  -0.19722			 -0.68377
	86.50			  10.63337			  -0.29936			 -0.63922
	86.75			  10.49883			  -0.28189			 -0.57566
	87.00			  10.31102			  -0.24860			 -0.60688
	87.25			  10.03706			  -0.29258			 -0.22051
	87.50			  10.17685			  -0.69497			 -0.00887
	87.75			  10.08245			  -0.56221			 0.19383
	88.00			  9.69757			  -0.75374			 -0.01306
	88.25			  9.69219			  -0.62551			 -0.20560
	88.50			  9.84599			  -0.71490			 -0.33057
	88.75			  9.82399			  -0.52501			 -0.25201
	89.00			  9.81236			  -0.38629			 -0.20373
	89.25			  9.94778			  -0.54741			 0.05180
	89.50			  10.15459			  -0.41835			 -0.05099
	89.75			  10.20623			  -0.24490			 -0.09027
	90.00			  10.13984			  -0.45781			 0.06532
	90.25			  10.14809			  -0.30059			 0.08316
	90.50			  10.20861			  -0.55378			 -0.09400
	90.75			  10.27338			  -0.16146			 -0.15117
	91.00			  10.19661			  -0.11974			 -0.29087
	91.25			  10.20874			  -0.15982			 -0.07014
	91.50			  10.27126			  -0.22949			 -0.17470
	91.75			  10.20573			  -0.10433			 -0.06180
	92.00			  10.31590			  0.03583			 0.19089
	92.25			  10.11258			  -0.20462			 0.25394
	92.50			  10.07344			  -0.12858			 0.17962
	92.75			  10.38142			  -0.22476			 0.16051
	93.00			  10.33753			  -0.03179			 0.24005
	93.25			  10.12521			  0.23312			 0.27765
	93.50			  10.30664			  0.01980			 0.02948
	93.75			  10.31427			  0.11248			 0.12957
	94.00			  10.26788			  0.00829			 -0.15192
	94.25			  10.37629			  0.24976			 -0.56332
	94.50			  10.60911			  0.31511			 -0.63815
	94.75			  10.66801			  0.03994			 -0.66951
	95.00			  10.83794			  -0.07022			 -0.62850
	95.25			  10.87945			  -0.22743			 -0.59467
	95.50			  10.56998			  0.12502			 -0.80012
	95.75			  10.57710			  0.30710			 -0.84140
	96.00			  10.53284			  0.14845			 -0.49104
	96.25			  10.83856			  0.12337			 -0.10979
	96.50			  10.84356			  -0.10639			 -0.11622
	96.75			  10.80305			  -0.31580			 -0.30051
	97.00			  10.79317			  -0.35916			 -0.28607
	97.25			  10.69414			  -0.23606			 -0.16473
	97.50			  10.33640			  -0.13475			 -0.24460
	97.75			  10.41343			  -0.10207			 -0.26184
	98.00			  10.60499			  -0.31231			 -0.25536
	98.25			  10.73916			  -0.28518			 -0.15043
	98.50			  10.89446			  -0.28045			 -0.30652
	98.75			  10.86145			  -0.29340			 -0.05169
	99.00			  10.85682			  -0.26052			 0.10231
	99.25			  10.77504			  -0.15920			 0.07137
	99.50			  10.92609			  -0.02172			 -0.01912
	99.75			  10.59936			  -0.06117			 0.13339
	100.00			  10.46782			  0.07816			 0.27919
	100.25			  10.66351			  0.19242			 0.28255
	100.50			  10.66438			  0.25305			 0.18800
	100.75			  10.64963			  0.19140			 0.17901
	101.00			  10.41168			  0.09871			 0.27397
	101.25			  10.12871			  -0.06590			 -0.05043
	101.50			  10.14784			  -0.43808			 -0.09842
	101.75			  10.20061			  -0.28251			 -0.01814
	102.00			  10.21124			  -0.29093			 -0.08165
	102.25			  10.25388			  -0.17441			 -0.20998
	102.50			  10.33178			  -0.39883			 -0.26188
	102.75			  10.21124			  -0.24716			 -0.22614
	103.00			  10.17660			  -0.01329			 -0.17028
	103.25			  10.27901			  -0.34724			 -0.08650
	103.50			  10.34515			  -0.67770			 -0.00355
	103.75			  9.98504			  -0.70195			 -0.38173
	104.00			  9.87013			  -0.54001			 -0.32050
	104.25			  9.57778			  -0.78909			 -0.53289
	104.50			  10.06169			  -0.52953			 -0.41579
	104.75			  9.98766			  -0.52645			 -0.60390
	105.00			  9.86387			  -0.78827			 -0.26188
	105.25			  9.92352			  -0.58728			 -0.15993
	105.50			  9.86675			  -0.79978			 -0.66890
	105.75			  10.08069			  -0.76299			 -0.51048
	106.00			  10.03843			  -0.60413			 -0.47567
	106.25			  10.08732			  -0.39287			 -0.38317
	106.50			  10.04606			  -0.51926			 -0.43126
	106.75			  9.98141			  -0.57557			 -0.47786
	107.00			  9.68182			  -0.77964			 -0.49780
	107.25			  9.66106			  -0.80019			 -0.40880
	107.50			  9.39823			  -0.63866			 -0.29632
	107.75			  9.30695			  -0.49850			 -0.12787
	108.00			  9.24805			  -0.48268			 0.15986
	108.25			  9.40498			  -0.78108			 -0.05728
	108.50			  9.46300			  -0.93418			 -0.15266
	108.75			  9.45449			  -0.80964			 0.32770
	109.00			  9.50814			  -0.73216			 0.14392
	109.25			  9.75684			  -0.55337			 0.14723
	109.50			  9.69370			  -0.68675			 0.20958
	109.75			  9.76659			  -0.49336			 0.22360
	110.00			  10.00204			  -0.45843			 0.27411
	110.25			  10.22562			  -0.66065			 0.30477
	110.50			  10.21986			  -0.62838			 0.00903
	110.75			  10.30652			  -0.33101			 0.12515
	111.00			  10.29151			  -0.16187			 0.49307
	111.25			  10.26638			  -0.08316			 0.28148
	111.50			  9.81211			  -0.10577			 0.23791
	111.75			  9.86475			  -0.22435			 0.37653
	112.00			  9.99404			  -0.00240			 0.29252
	112.25			  9.68469			  0.08248			 0.30175
	112.50			  9.95215			  -0.30059			 0.09281
	112.75			  9.89138			  -0.40006			 -0.06189
	113.00			  9.89664			  -0.38198			 -0.19520
	113.25			  9.86688			  -0.24942			 -0.28765
	113.50			  9.99992			  -0.30799			 -0.11949
	113.75			  9.77260			  -0.30861			 -0.10047
	114.00			  9.92302			  -0.24428			 -0.13556
	114.25			  9.92452			  0.15975			 -0.03720
	114.50			  9.80923			  -0.02809			 -0.27405
	114.75			  9.85287			  -0.30655			 -0.41076
	115.00			  10.06882			  -0.22271			 -0.50526
	115.25			  10.03893			  -0.56940			 -0.48191
	115.50			  10.24187			  -0.75477			 -0.31337
	115.75			  10.23049			  -0.48288			 -0.24637
	116.00			  9.97866			  -0.70709			 -0.45885
	116.25			  10.03906			  -1.01207			 -0.41551
	116.50			  10.03418			  -0.72312			 -0.39678
	116.75			  10.07619			  -0.54988			 -0.28807
	117.00			  9.85200			  -0.56015			 -0.25452
	117.25			  9.45062			  -0.65222			 -0.38476
	117.50			  9.52814			  -0.46048			 -0.34785
	117.75			  9.38847			  -0.35074			 -0.25373
	118.00			  9.41498			  -0.18982			 -0.21300
	118.25			  9.51476			  -0.01617			 0.16708
	118.50			  9.32783			  -0.10639			 0.48925
	118.75			  9.59066			  -0.30121			 0.50542
	119.00			  9.55928			  -0.41486			 0.34550
	119.25			  9.63268			  -0.68120			 0.37458
	119.50			  9.71120			  -0.62037			 0.23595
	119.75			  9.70695			  -0.55029			 -0.06278
	120.00			  9.61880			  -0.34231			 -0.14460
	120.25			  9.42798			  -0.11728			 0.30673
	120.50			  9.37559			  -0.11831			 0.52406
	120.75			  9.14689			  -0.26011			 0.65802
	121.00			  9.03573			  -0.39246			 0.53682
	121.25			  9.00147			  -0.29258			 0.56408
	121.50			  9.20729			  -0.31272			 0.22472
	121.75			  9.28882			  -0.54721			 0.03125
	122.00			  9.40973			  -0.42513			 0.61180
	122.25			  9.24918			  -0.28395			 0.67941
	122.50			  9.21504			  -0.12283			 0.85163
	122.75			  9.20616			  0.00973			 0.61385
	123.00			  9.08037			  -0.03096			 0.68812
	123.25			  9.06574			  0.06234			 0.70797
	123.50			  9.25180			  0.28470			 0.61427
	123.75			  9.42361			  0.12748			 0.44955
	124.00			  9.31920			  0.08638			 0.28651
	124.25			  9.14815			  0.25284			 0.71454
	124.50			  9.14727			  0.19160			 0.70177
	124.75			  9.07837			  0.32786			 0.44922
	125.00			  9.05924			  0.27853			 0.40132
	125.25			  9.15202			  0.12522			 0.42373
	125.50			  9.23192			  0.06850			 0.29252
	125.75			  9.02373			  -0.24963			 0.56562
	126.00			  9.07975			  -0.11851			 0.69772
	126.25			  8.97259			  -0.07268			 0.34433
	126.50			  9.09038			  0.00336			 0.51213
	126.75			  9.05899			  0.10221			 0.46302
	127.00			  9.18266			  0.23682			 0.36549
	127.25			  9.22880			  0.13118			 0.58034
	127.50			  9.32545			  0.18975			 0.46348
	127.75			  9.32295			  0.26271			 0.51944
	128.00			  9.22767			  0.32046			 0.57275
	128.25			  9.04111			  0.12481			 0.63365
	128.50			  9.12501			  0.02904			 0.25599
	128.75			  9.05261			  -0.07351			 0.28581
	129.00			  9.03786			  0.03089			 0.18931
	129.25			  9.13264			  0.02308			 0.23166
	129.50			  9.31720			  0.11125			 0.09998
	129.75			  8.96434			  0.12584			 0.15632
	130.00			  8.89106			  0.18914			 0.02566
	130.25			  8.97259			  -0.29340			 0.10725
	130.50			  9.06012			  -0.55584			 0.09490
	130.75			  9.22554			  -0.59345			 0.17081
	131.00			  9.39698			  -0.52830			 0.20459
	131.25			  9.35959			  -0.62345			 0.04295
	131.50			  9.29382			  -0.54782			 -0.00532
	131.75			  9.34921			  -0.49233			 0.18167
	132.00			  9.43074			  -0.29217			 0.21335
	132.25			  9.25293			  -0.08152			 0.06243
	132.50			  9.26543			  0.07631			 0.15483
	132.75			  9.23117			  0.00521			 0.01229
	133.00			  9.27456			  -0.29731			 -0.01674
	133.25			  9.26606			  -0.02973			 -0.22959
	133.50			  9.49601			  -0.27141			 -0.51192
	133.75			  9.57891			  -0.38670			 -0.44864
	134.00			  9.80223			  -0.41753			 -0.47324
	134.25			  9.95378			  -0.67442			 -0.65935
	134.50			  10.01467			  -0.53200			 -0.44748
	134.75			  9.79548			  -0.59694			 -0.28495
	135.00			  9.81423			  -0.71408			 -0.27223
	135.25			  9.64305			  -0.66763			 -0.48289
	135.50			  9.83887			  -0.48822			 -0.45782
	135.75			  9.76347			  -0.52090			 0.12994
	136.00			  9.38997			  -0.57927			 0.11019
	136.25			  9.34508			  -0.51782			 -0.28807
	136.50			  9.33721			  -0.00630			 -0.47739
	136.75			  9.21729			  -0.20092			 -0.25620
	137.00			  9.18528			  -0.24367			 -0.30266
	137.25			  9.19991			  -0.05254			 -0.19548
	137.50			  8.84430			  -0.18592			 -0.32120
	137.75			  8.75814			  -0.45925			 0.02412
	138.00			  8.87193			  -0.41938			 -0.16934
	138.25			  8.74739			  -0.42082			 0.06485
	138.50			  8.78903			  -0.38239			 0.28753
	138.75			  8.97521			  -0.33080			 0.17388
	139.00			  8.88494			  -0.46069			 0.24541
	139.25			  9.15502			  -0.53220			 -0.30014
	139.50			  9.20654			  -0.30347			 -0.24231
	139.75			  9.10363			  0.20804			 -0.07452
	140.00			  9.02923			  0.28552			 -0.05444
	140.25			  9.11101			  -0.09447			 -0.07270
	140.50			  8.89894			  -0.24654			 -0.14306
	140.75			  9.06462			  -0.06652			 -0.21468
	141.00			  9.18016			  0.05514			 -0.18770
	141.25			  8.86781			  -0.20442			 -0.17028
	141.50			  8.85017			  -0.27655			 0.00399
	141.75			  9.09988			  -0.30614			 0.20431
	142.00			  8.95733			  -0.34190			 0.17598
	142.25			  9.14827			  -0.41362			 0.01634
	142.50			  8.86218			  -0.43048			 0.07286
	142.75			  8.65011			  -0.45699			 -0.12060
	143.00			  8.88731			  -0.61544			 -0.17978
	143.25			  8.96946			  -0.45329			 0.04616
	143.50			  9.08875			  -0.59160			 -0.07662
	143.75			  9.26881			  -0.73052			 -0.07811
	144.00			  9.16165			  -1.15778			 -0.07298
	144.25			  9.19266			  -1.30842			 -0.13370
	144.50			  9.13164			  -0.94651			 -0.17368
	144.75			  9.23130			  -1.04906			 -0.16706
	145.00			  9.10851			  -0.75929			 -0.11893
	145.25			  8.98684			  -0.53405			 -0.31566
	145.50			  9.16453			  -0.40951			 -0.25778
	145.75			  9.45199			  0.02946			 -0.16976
	146.00			  9.47000			  -0.00980			 -0.41309
	146.25			  9.46025			  0.01877			 -0.25224
	146.50			  9.47550			  -0.03816			 -0.25662
	146.75			  9.39798			  0.00315			 -0.14255
	147.00			  9.04449			  -0.06528			 -0.21370
	147.25			  9.05399			  0.05864			 -0.03603
	147.50			  8.94020			  0.02206			 -0.07205
	147.75			  8.84817			  -0.18099			 -0.09218
	148.00			  8.76952			  -0.54248			 -0.14940
	148.25			  8.58721			  -0.35773			 -0.40111
	148.50			  8.72588			  -0.19969			 -0.29292
	148.75			  8.65361			  -0.20421			 0.16731
	149.00			  8.67974			  -0.10145			 0.12487
	149.25			  8.74452			  -0.10556			 0.08722
	149.50			  8.71238			  -0.05994			 -0.01045
	149.75			  8.85430			  0.12173			 -0.12018
	150.00			  8.91520			  0.42732			 -0.06776
	150.25			  8.89481			  0.06398			 0.12789
	150.50			  8.74677			  0.36012			 -0.09372
	150.75			  8.87093			  0.44335			 -0.19735
	151.00			  9.09575			  0.27915			 -0.23136
	151.25			  9.07875			  0.09419			 -0.26640
	151.50			  9.08725			  0.12831			 -0.31239
	151.75			  9.23705			  0.26661			 -0.14861
	152.00			  8.98547			  0.37841			 -0.19828
	152.25			  9.06399			  0.06665			 0.02179
	152.50			  8.86956			  0.22099			 -0.03785
	152.75			  8.85605			  0.52145			 0.17416
	153.00			  8.98822			  0.50028			 -0.13528
	153.25			  8.95283			  0.59584			 -0.09917
	153.50			  8.89769			  0.64372			 -0.36146
	153.75			  8.72263			  0.58063			 -0.40149
	154.00			  8.89969			  0.61475			 -0.18486
	154.25			  8.87156			  0.76518			 -0.38378
	154.50			  9.33370			  0.46966			 -0.57687
	154.75			  9.23542			  0.59440			 -0.43457
	155.00			  9.28206			  0.57344			 -0.38522
	155.25			  9.06812			  0.29908			 -0.40712
	155.50			  9.44437			  0.32929			 -0.14646
	155.75			  9.48838			  0.34019			 0.03186
	156.00			  9.69019			  0.32025			 -0.03855
	156.25			  9.69182			  0.50583			 0.05395
	156.50			  9.70195			  0.33793			 -0.15886
	156.75			  9.65756			  0.37841			 -0.14376
	157.00			  9.46475			  0.19715			 0.25002
	157.25			  9.47212			  0.55083			 0.25361
	157.50			  9.37084			  0.67188			 0.17938
	157.75			  9.22642			  0.48507			 0.36274
	158.00			  9.25630			  0.12111			 0.28697
	158.25			  9.01948			  0.16633			 0.02114
	158.50			  9.05699			  0.20948			 -0.11785
	158.75			  9.11901			  -0.14523			 -0.12806
	159.00			  8.96671			  0.00685			 -0.25443
	159.25			  8.72326			  0.01445			 -0.13612
	159.50			  8.65786			  0.02062			 -0.22419
	159.75			  8.75990			  -0.31251			 -0.06655
	160.00			  8.76715			  -0.71264			 -0.09400
	160.25			  8.81129			  -0.74491			 -0.18216
	160.50			  8.78665			  -0.67318			 -0.16319
	160.75			  8.84567			  -0.60043			 -0.18621
	161.00			  8.76765			  -0.46192			 -0.22395
	161.25			  9.01598			  -0.18736			 -0.40079
	161.50			  9.21892			  -0.21757			 -0.45139
	161.75			  8.97859			  -0.45432			 -0.67277
	162.00			  8.89581			  -0.33800			 -0.58633
	162.25			  9.28544			  -0.14502			 -0.66359
	162.50			  9.21417			  -0.29381			 -0.61755
	162.75			  8.93758			  -0.20668			 -0.57874
	163.00			  9.21879			  -0.23709			 -0.58037
	163.25			  9.19491			  -0.27778			 -0.64188
	163.50			  9.19078			  -0.37519			 -0.50875
	163.75			  9.12739			  -0.08214			 -0.56276
	164.00			  9.22930			  0.10508			 -0.39324
	164.25			  9.02748			  -0.09241			 -0.27968
	164.50			  8.86355			  0.03315			 -0.38960
	164.75			  8.99672			  -0.02829			 -0.42012
	165.00			  8.91832			  0.11330			 -0.26678
	165.25			  9.01998			  -0.26956			 -0.26631
	165.50			  9.28894			  -0.21079			 -0.53382
	165.75			  9.13339			  0.24421			 -0.51504
	166.00			  9.16853			  0.17228			 -0.48769