--------------TurbSim v2.00.* User Time Series Input File-----------------------
     Time series input from low-res turbsim run
--------------------------------------------------------------------------------
          3 nComp - Number of velocity components in the file
          1 nPoints - Number of time series points contained in this file (-)
          1 RefPtID - Index of the reference point (1-nPoints)
     Pointyi Pointzi ! nPoints listed in order of increasing height
       (m)     (m)
       -1.84356   94.00000
--------Time Series-------------------------------------------------------------
Elapsed Time         Point01u             Point01v           Point01w
         (s)            (m/s)                (m/s)              (m/s)
	0.00			  10.29694			  0.38784			 0.41679
	0.25			  10.15721			  0.29151			 0.19072
	0.50			  10.27116			  0.30580			 0.08509
	0.75			  10.35002			  0.10452			 0.29390
	1.00			  10.41945			  0.23923			 0.28434
	1.25			  10.50178			  0.31912			 0.18644
	1.50			  10.68809			  0.32734			 0.14721
	1.75			  10.69437			  0.21397			 0.26455
	2.00			  10.43483			  0.24001			 0.21175
	2.25			  10.29629			  -0.01061			 0.25145
	2.50			  10.45227			  -0.10341			 0.26431
	2.75			  10.42238			  -0.04859			 0.19950
	3.00			  10.15504			  0.14819			 0.10075
	3.25			  9.99895			  0.44423			 0.06569
	3.50			  9.93157			  0.40820			 0.30840
	3.75			  9.88380			  0.43659			 0.31925
	4.00			  9.65665			  0.45891			 0.23920
	4.25			  9.90146			  0.32421			 0.14263
	4.50			  9.99310			  0.38001			 0.33655
	4.75			  10.15331			  0.13702			 0.45602
	5.00			  10.28383			  0.06282			 0.53530
	5.25			  10.21852			  0.10785			 0.40937
	5.50			  9.97468			  0.20595			 0.16743
	5.75			  10.03502			  0.28485			 0.11825
	6.00			  10.01076			  0.01465			 0.21984
	6.25			  9.88066			  0.05753			 0.16611
	6.50			  9.75544			  -0.04272			 0.51967
	6.75			  9.78285			  -0.09108			 0.50466
	7.00			  9.89182			  -0.09147			 0.37045
	7.25			  9.81177			  -0.22970			 0.37173
	7.50			  9.90200			  -0.21600			 0.38138
	7.75			  9.95519			  -0.17664			 0.55454
	8.00			  10.11204			  -0.10087			 0.47729
	8.25			  10.01845			  -0.12534			 0.22905
	8.50			  10.16392			  -0.23656			 0.09636
	8.75			  10.33388			  -0.17468			 0.11697
	9.00			  10.28113			  -0.07444			 0.12097
	9.25			  10.18472			  0.09336			 -0.01510
	9.50			  10.20628			  -0.11575			 0.04745
	9.75			  10.06242			  -0.13866			 -0.15157
	10.00			  9.89615			  0.03129			 -0.20798
	10.25			  10.01660			  0.06008			 0.15919
	10.50			  9.71872			  -0.00414			 0.13843
	10.75			  9.88510			  0.22278			 0.08030
	11.00			  9.90525			  0.32049			 0.10126
	11.25			  9.83018			  0.19224			 0.32543
	11.50			  9.98671			  0.30051			 0.21642
	11.75			  10.11604			  0.34437			 0.29203
	12.00			  10.17475			  0.17344			 0.36820
	12.25			  10.24072			  0.24119			 0.19826
	12.50			  10.29542			  0.53214			 0.19429
	12.75			  10.41815			  0.58285			 0.26777
	13.00			  10.29337			  0.49240			 0.23811
	13.25			  10.43798			  0.55329			 0.32158
	13.50			  10.61313			  0.45500			 0.28947
	13.75			  10.67033			  0.29307			 0.29853
	14.00			  10.66881			  0.08847			 0.30957
	14.25			  10.51326			  0.17188			 0.26746
	14.50			  10.50048			  0.00349			 0.16059
	14.75			  10.57533			  -0.11105			 -0.02665
	15.00			  10.43007			  0.11921			 0.03046
	15.25			  10.48055			  0.08279			 0.12175
	15.50			  10.47643			  0.28387			 0.23477
	15.75			  10.50817			  0.44971			 0.26097
	16.00			  10.50156			  0.40546			 0.12898
	16.25			  10.37407			  0.38941			 0.07692
	16.50			  10.37710			  0.44580			 0.18310
	16.75			  10.53622			  0.38392			 0.45824
	17.00			  10.63371			  0.51452			 0.29701
	17.25			  10.58713			  0.45676			 0.47064
	17.50			  10.36291			  0.41976			 0.55349
	17.75			  10.22480			  0.44384			 0.52538
	18.00			  10.24895			  0.35788			 0.53549
	18.25			  10.27170			  0.38001			 0.36124
	18.50			  10.04531			  0.30639			 0.29635
	18.75			  9.97848			  0.34966			 -0.11864
	19.00			  9.97934			  0.42152			 0.01398
	19.25			  9.78057			  0.64610			 -0.10021
	19.50			  9.91132			  0.62984			 -0.20817
	19.75			  9.88489			  0.31540			 -0.26637
	20.00			  9.91175			  0.26566			 -0.29021
	20.25			  10.02841			  0.07182			 -0.02840
	20.50			  10.02180			  0.09552			 -0.23099
	20.75			  10.06286			  -0.01217			 -0.17237
	21.00			  9.88759			  0.07946			 0.04597
	21.25			  9.74981			  -0.40690			 0.30969
	21.50			  9.67355			  -0.73897			 0.32563
	21.75			  9.96829			  -0.74171			 0.30906
	22.00			  10.07791			  -0.63500			 0.55081
	22.25			  10.22003			  -0.74621			 0.63615
	22.50			  9.69608			  -0.73055			 0.79376
	22.75			  9.61062			  -0.74993			 0.68968
	23.00			  9.79736			  -0.53495			 0.27878
	23.25			  9.91197			  -0.74230			 0.21463
	23.50			  10.13500			  -0.83628			 0.09259
	23.75			  10.03296			  -0.76090			 -0.15269
	24.00			  9.90070			  -0.66946			 -0.04753
	24.25			  9.92821			  -0.51791			 0.05756
	24.50			  9.83018			  -0.54454			 0.04415
	24.75			  10.07791			  -0.69119			 0.01460
	25.00			  10.17324			  -0.41767			 -0.02809
	25.25			  10.06318			  -0.28805			 0.02774
	25.50			  10.00534			  -0.38223			 0.01802
	25.75			  9.87849			  -0.53338			 0.10402
	26.00			  10.10597			  -0.79281			 0.03066
	26.25			  10.00599			  -0.66378			 -0.09197
	26.50			  10.05896			  -0.54435			 -0.08975
	26.75			  10.21050			  -0.48522			 0.00181
	27.00			  10.30561			  -0.45232			 0.00472
	27.25			  10.19566			  -0.53182			 -0.01472
	27.50			  10.07607			  -0.80671			 0.02568
	27.75			  10.20552			  -0.79673			 -0.00402
	28.00			  10.31709			  -0.82375			 0.05632
	28.25			  10.18071			  -0.78851			 -0.05359
	28.50			  10.17714			  -0.90207			 -0.21443
	28.75			  10.03513			  -0.88503			 -0.01549
	29.00			  10.23022			  -0.67279			 0.05177
	29.25			  10.29802			  -0.46466			 0.12571
	29.50			  10.35587			  -0.56589			 -0.16743
	29.75			  10.22978			  -0.57352			 -0.20483
	30.00			  10.21245			  -0.95924			 -0.03454
	30.25			  10.30290			  -1.07319			 0.01452
	30.50			  10.29997			  -0.96453			 -0.09547
	30.75			  10.08983			  -0.84529			 -0.27812
	31.00			  10.09265			  -0.82042			 -0.22419
	31.25			  10.10749			  -0.93986			 -0.29612
	31.50			  10.18190			  -0.89306			 -0.24048
	31.75			  10.15959			  -0.66202			 -0.25063
	32.00			  10.22881			  -0.71724			 -0.19126
	32.25			  10.13338			  -0.37812			 -0.07113
	32.50			  10.02798			  -0.43979			 0.01328
	32.75			  10.23000			  -0.43725			 -0.01437
	33.00			  10.24841			  -0.46818			 0.09974
	33.25			  10.21462			  -0.28022			 0.11782
	33.50			  10.00653			  -0.44390			 -0.15087
	33.75			  10.00566			  -0.54944			 -0.10390
	34.00			  9.94175			  -0.30411			 0.14220
	34.25			  9.81166			  -0.33739			 -0.08011
	34.50			  9.77873			  -0.27630			 0.01281
	34.75			  9.80852			  -0.21286			 -0.00449
	35.00			  9.94078			  -0.26397			 0.23356
	35.25			  10.15277			  -0.31742			 0.22843
	35.50			  10.11561			  -0.24537			 0.20775
	35.75			  10.26509			  -0.07972			 0.25992
	36.00			  10.00415			  -0.04526			 0.20763
	36.25			  9.91446			  -0.02803			 0.15425
	36.50			  9.98162			  0.09767			 0.16801
	36.75			  10.21808			  -0.02529			 0.28558
	37.00			  10.25112			  0.10883			 0.25930
	37.25			  10.57273			  0.15680			 -0.01864
	37.50			  10.62873			  0.24295			 -0.05079
	37.75			  10.60598			  -0.09871			 -0.09819
	38.00			  10.37006			  -0.22128			 -0.33667
	38.25			  10.40125			  -0.40984			 -0.24068
	38.50			  10.52073			  -0.20523			 -0.24849
	38.75			  10.47697			  -0.29686			 0.05733
	39.00			  10.38360			  -0.15843			 0.31781
	39.25			  10.25090			  -0.11614			 0.04819
	39.50			  10.46971			  -0.17605			 0.02766
	39.75			  10.58681			  -0.14982			 -0.00640
	40.00			  10.60577			  -0.14218			 -0.01106
	40.25			  10.65798			  -0.13102			 0.07502
	40.50			  10.78006			  0.01583			 0.03447
	40.75			  10.78244			  -0.00414			 -0.18197
	41.00			  10.75579			  0.08827			 -0.16972
	41.25			  10.66307			  0.14074			 0.05169
	41.50			  10.58659			  0.36356			 -0.02148
	41.75			  10.54478			  0.47360			 -0.10927
	42.00			  10.38966			  0.64473			 -0.02459
	42.25			  10.51813			  0.50845			 0.05807
	42.50			  10.53742			  0.38725			 0.13085
	42.75			  10.47990			  0.45598			 0.09006
	43.00			  10.38826			  0.29562			 -0.02467
	43.25			  10.26336			  0.34888			 0.07171
	43.50			  10.29196			  0.43503			 0.09061
	43.75			  10.48791			  0.27408			 0.06421
	44.00			  10.45282			  0.05322			 0.08983
	44.25			  10.41198			  0.02581			 0.07564
	44.50			  10.31384			  -0.02196			 0.20180
	44.75			  10.47275			  -0.09206			 0.25599
	45.00			  10.72752			  0.01113			 0.19418
	45.25			  10.63805			  0.12939			 0.29689
	45.50			  10.86715			  0.13722			 0.23772
	45.75			  11.10199			  -0.19505			 0.41959
	46.00			  10.98944			  -0.28942			 0.32648
	46.25			  10.91112			  -0.18036			 0.26428
	46.50			  10.88415			  -0.08775			 0.30339
	46.75			  10.81916			  -0.08188			 0.33134
	47.00			  10.95705			  -0.24008			 0.20378
	47.25			  10.90528			  -0.26769			 0.31439
	47.50			  10.80519			  -0.19994			 0.13909
	47.75			  10.63740			  -0.07541			 0.21086
	48.00			  10.62873			  0.12254			 0.14542
	48.25			  10.62537			  -0.01433			 -0.20673
	48.50			  10.62841			  0.13233			 -0.10958
	48.75			  10.49149			  0.10687			 -0.30210
	49.00			  10.42064			  0.30012			 -0.49082
	49.25			  10.55561			  0.21848			 -0.26346
	49.50			  10.61367			  0.26155			 -0.39199
	49.75			  10.73066			  0.20066			 -0.39409
	50.00			  10.84765			  0.25959			 -0.37243
	50.25			  10.74214			  0.44247			 -0.45007
	50.50			  10.72394			  0.38960			 -0.47286
	50.75			  10.87408			  0.17286			 -0.17003
	51.00			  10.88285			  0.20927			 -0.13792
	51.25			  10.90950			  0.17188			 0.03789
	51.50			  10.79663			  0.28015			 -0.13018
	51.75			  10.86444			  0.29973			 -0.08963
	52.00			  10.80757			  0.25959			 -0.03353
	52.25			  10.83584			  0.60400			 -0.15300
	52.50			  10.75048			  0.68800			 -0.08341
	52.75			  10.68668			  0.52607			 -0.07327
	53.00			  10.81385			  0.55055			 -0.22738
	53.25			  10.81775			  0.59871			 -0.24223
	53.50			  10.77258			  0.43424			 -0.13691
	53.75			  10.74182			  0.32186			 -0.16315
	54.00			  10.83757			  0.32519			 0.01545
	54.25			  10.87354			  0.27310			 0.13687
	54.50			  10.84245			  0.13487			 0.02323
	54.75			  10.88881			  0.29797			 -0.04710
	55.00			  10.88914			  0.30267			 0.13932
	55.25			  10.67802			  0.18108			 0.28228
	55.50			  10.65440			  0.14172			 0.28290
	55.75			  10.47253			  0.01896			 0.11370
	56.00			  10.45184			  0.04872			 0.06817
	56.25			  10.64801			  -0.02353			 -0.01961
	56.50			  10.61227			  0.12606			 -0.06090
	56.75			  10.54142			  0.11647			 0.11168
	57.00			  10.45639			  -0.14943			 0.17330
	57.25			  10.58356			  -0.02412			 0.29868
	57.50			  10.73380			  -0.10753			 0.16821
	57.75			  10.81428			  -0.02686			 0.07824
	58.00			  10.80779			  -0.09030			 0.04166
	58.25			  10.81894			  -0.01217			 0.13081
	58.50			  11.04880			  0.08455			 0.01989
	58.75			  11.07112			  0.10061			 0.03583
	59.00			  11.01782			  0.07809			 0.00391
	59.25			  11.08076			  -0.11203			 0.01052
	59.50			  11.25429			  -0.10987			 0.23998
	59.75			  11.18940			  -0.08755			 0.16953
	60.00			  10.98803			  -0.12319			 0.17598
	60.25			  10.83671			  -0.19505			 0.20355
	60.50			  11.00027			  -0.11575			 0.22462
	60.75			  11.14315			  0.05401			 0.34954
	61.00			  11.16503			  0.16679			 0.13804
	61.25			  11.17467			  0.09787			 0.17077
	61.50			  11.05801			  -0.00140			 0.35004
	61.75			  11.07826			  -0.07972			 0.14014
	62.00			  11.26501			  -0.29686			 0.09399
	62.25			  11.34506			  -0.03312			 0.12186
	62.50			  11.36824			  -0.00630			 0.12043
	62.75			  11.40085			  0.05714			 0.13788
	63.00			  11.41536			  0.58618			 0.12820
	63.25			  11.43692			  0.65961			 -0.17101
	63.50			  11.21627			  0.51452			 -0.11424
	63.75			  11.03667			  0.43170			 0.06226
	64.00			  11.05563			  0.30149			 0.00309
	64.25			  11.15485			  -0.07698			 -0.03240
	64.50			  11.20305			  -0.02333			 -0.20242
	64.75			  11.22309			  -0.13494			 -0.20024
	65.00			  11.15366			  -0.08266			 -0.04908
	65.25			  11.27898			  0.05910			 0.04255
	65.50			  11.21009			  0.07026			 -0.06728
	65.75			  11.35286			  -0.01198			 0.01752
	66.00			  11.19439			  0.04970			 0.08244
	66.25			  11.25505			  0.11979			 0.08077
	66.50			  11.32621			  0.08024			 0.18691
	66.75			  11.31441			  -0.02020			 0.27780
	67.00			  11.41406			  0.00330			 0.17835
	67.25			  11.42143			  -0.08051			 0.05033
	67.50			  11.43139			  0.18558			 0.08485
	67.75			  11.33434			  0.06380			 0.04586
	68.00			  11.48295			  0.17129			 -0.12396
	68.25			  11.10166			  0.16639			 -0.13512
	68.50			  11.20912			  0.18499			 -0.07397
	68.75			  11.18290			  -0.06445			 -0.03400
	69.00			  11.17586			  0.21397			 0.02335
	69.25			  11.18951			  0.30717			 0.36198
	69.50			  11.18745			  0.14368			 0.19892
	69.75			  11.17250			  0.20908			 0.10981
	70.00			  11.02465			  0.36454			 -0.06460
	70.25			  11.24096			  0.27800			 -0.05857
	70.50			  11.35557			  0.39254			 -0.16642
	70.75			  11.42446			  0.57815			 -0.32566
	71.00			  11.46443			  0.46048			 -0.05857
	71.25			  11.68411			  0.44090			 0.19080
	71.50			  11.81333			  0.49298			 0.23737
	71.75			  11.88494			  0.31912			 0.17960
	72.00			  12.05728			  0.26684			 -0.00884
	72.25			  12.03344			  0.27291			 0.05635
	72.50			  12.07753			  0.24432			 0.09815
	72.75			  12.04655			  0.29151			 0.06016
	73.00			  12.01730			  0.44521			 0.14741
	73.25			  11.88754			  0.43561			 0.27225
	73.50			  11.89046			  0.32049			 0.17524
	73.75			  11.98676			  0.33302			 0.06110
	74.00			  11.76654			  0.51765			 0.30436
	74.25			  11.72299			  0.48476			 0.05433
	74.50			  11.97993			  0.53508			 -0.06938
	74.75			  11.93530			  0.39195			 -0.03205
	75.00			  11.67317			  0.42015			 -0.10647
	75.25			  11.60362			  0.35064			 -0.02440
	75.50			  11.68021			  0.29210			 0.00729
	75.75			  11.63298			  0.14407			 0.07995
	76.00			  11.56322			  0.44443			 0.11288
	76.25			  11.65594			  0.37022			 -0.02327
	76.50			  11.70675			  0.50591			 -0.19219
	76.75			  11.45111			  0.43072			 -0.25502
	77.00			  11.35113			  0.34751			 -0.27065
	77.25			  11.27032			  0.29229			 -0.08862
	77.50			  11.31430			  0.30502			 -0.06009
	77.75			  11.36142			  0.13115			 -0.15056
	78.00			  11.21063			  0.16463			 -0.10246
	78.25			  11.26664			  0.31872			 -0.25078
	78.50			  11.32069			  0.21436			 -0.37041
	78.75			  11.30043			  0.20614			 -0.25152
	79.00			  11.38655			  0.21495			 -0.07152
	79.25			  11.42998			  -0.02275			 -0.24756
	79.50			  11.38676			  0.00525			 -0.19184
	79.75			  11.20316			  -0.32251			 -0.23764
	80.00			  11.19103			  -0.16157			 -0.33737
	80.25			  11.12224			  0.08338			 -0.22334
	80.50			  11.07610			  0.35867			 -0.31785
	80.75			  11.11856			  0.32166			 -0.02389
	81.00			  11.21226			  0.04108			 -0.02393
	81.25			  11.27595			  0.01759			 -0.02976
	81.50			  10.93030			  0.03306			 -0.22493
	81.75			  10.93225			  -0.02470			 -0.23022
	82.00			  11.02150			  0.11588			 -0.13073
	82.25			  11.03732			  0.13761			 -0.08761
	82.50			  10.88719			  0.12841			 -0.18551
	82.75			  10.89748			  0.08455			 -0.48615
	83.00			  10.83270			  0.05929			 -0.59116
	83.25			  10.89098			  0.16189			 -0.21708
	83.50			  10.82371			  0.38667			 -0.05647
	83.75			  10.76077			  0.37942			 -0.08625
	84.00			  10.64639			  0.24863			 0.10763
	84.25			  10.69037			  0.36865			 0.14033
	84.50			  10.99432			  0.38138			 0.11984
	84.75			  10.94210			  0.32303			 0.17870
	85.00			  10.92477			  -0.09362			 0.23920
	85.25			  10.97016			  -0.07130			 0.05243
	85.50			  10.83779			  -0.09343			 0.16852
	85.75			  10.82696			  0.10609			 0.05791
	86.00			  10.95824			  0.10491			 0.10180
	86.25			  11.00233			  -0.01335			 0.27831
	86.50			  10.96583			  0.01211			 0.11522
	86.75			  10.93203			  -0.06190			 -0.09049
	87.00			  10.82273			  -0.24556			 -0.16195
	87.25			  10.98316			  -0.13924			 -0.09733
	87.50			  11.02605			  0.02092			 -0.00476
	87.75			  10.96128			  -0.04624			 -0.12116
	88.00			  10.97503			  0.02836			 0.11603
	88.25			  11.01360			  -0.05094			 0.14974
	88.50			  10.93831			  -0.08227			 0.18539
	88.75			  11.12668			  0.00447			 0.09177
	89.00			  11.19146			  0.11882			 0.01219
	89.25			  11.00905			  -0.14884			 0.00539
	89.50			  10.86780			  -0.40416			 0.04477
	89.75			  10.84451			  -0.53299			 -0.23659
	90.00			  10.84516			  -0.50029			 -0.19612
	90.25			  11.00298			  -0.40592			 -0.28181
	90.50			  11.14087			  -0.38242			 -0.19795
	90.75			  11.26089			  -0.20131			 -0.14018
	91.00			  11.26891			  -0.40925			 -0.43219
	91.25			  11.26642			  -0.55707			 -0.05989
	91.50			  11.22742			  -0.55531			 0.07739
	91.75			  11.24389			  -0.96198			 0.11296
	92.00			  11.19363			  -0.82022			 -0.04267
	92.25			  11.04187			  -0.79653			 0.02739
	92.50			  10.99410			  -0.78694			 -0.00336
	92.75			  10.96442			  -0.86996			 -0.10771
	93.00			  11.16211			  -0.85703			 -0.14410
	93.25			  11.10491			  -0.62149			 -0.03447
	93.50			  11.01825			  -0.54885			 -0.09850
	93.75			  11.00320			  -0.44116			 -0.12023
	94.00			  11.08184			  -0.43803			 -0.13193
	94.25			  11.14445			  -0.70431			 -0.23123
	94.50			  11.03949			  -0.59897			 -0.11424
	94.75			  11.04349			  -0.43157			 -0.19216
	95.00			  11.04252			  -0.24165			 -0.14476
	95.25			  10.87408			  -0.02196			 -0.19908
	95.50			  10.83086			  -0.00982			 -0.04317
	95.75			  10.85306			  -0.29921			 -0.13730
	96.00			  10.83194			  -0.24184			 -0.30121
	96.25			  11.07588			  -0.24439			 -0.17174
	96.50			  11.15138			  -0.47073			 -0.25658
	96.75			  11.05487			  -0.43333			 -0.05041
	97.00			  11.05628			  -0.33426			 -0.03015
	97.25			  10.90408			  -0.35305			 0.18508
	97.50			  11.01024			  -0.26044			 0.40074
	97.75			  10.97612			  -0.48111			 0.30537
	98.00			  10.94514			  -0.59565			 0.11852
	98.25			  11.02367			  -0.73662			 0.07074
	98.50			  11.13102			  -0.61151			 -0.07257
	98.75			  10.98652			  -0.42335			 0.01094
	99.00			  11.18258			  -0.45663			 -0.08493
	99.25			  11.09830			  -0.39848			 0.04170
	99.50			  10.99637			  -0.38203			 -0.00686
	99.75			  10.92163			  -0.60113			 -0.27897
	100.00			  10.82533			  -0.77460			 -0.08753
	100.25			  10.85967			  -0.75718			 0.00154
	100.50			  10.89011			  -0.89933			 -0.10643
	100.75			  10.76836			  -1.02464			 0.05927
	101.00			  10.86238			  -0.95298			 0.07649
	101.25			  10.75092			  -0.90696			 -0.00196
	101.50			  10.80562			  -0.99311			 0.12198
	101.75			  10.78190			  -1.03227			 -0.08886
	102.00			  10.98641			  -1.02444			 -0.05803
	102.25			  11.12008			  -1.12939			 -0.18644
	102.50			  10.89639			  -1.15562			 0.02766
	102.75			  10.95944			  -1.03521			 -0.05538
	103.00			  10.91037			  -0.93986			 0.07568
	103.25			  10.95337			  -0.59056			 -0.03509
	103.50			  10.88762			  -0.73682			 -0.00846
	103.75			  10.58215			  -0.60739			 -0.00978
	104.00			  10.49625			  -0.54826			 0.19437
	104.25			  10.80443			  -0.61875			 0.10417
	104.50			  10.72557			  -0.78165			 -0.14111
	104.75			  10.74268			  -0.93085			 -0.34141
	105.00			  10.79262			  -0.88699			 -0.51873
	105.25			  10.72795			  -1.12019			 -0.22544
	105.50			  10.62104			  -1.23473			 -0.09799
	105.75			  10.58453			  -1.02601			 -0.06537
	106.00			  10.41696			  -0.93379			 -0.00690
	106.25			  10.26065			  -0.85547			 -0.01386
	106.50			  10.41544			  -1.20829			 0.12556
	106.75			  10.31536			  -0.87407			 0.08582
	107.00			  10.26618			  -0.95023			 -0.12249
	107.25			  10.36053			  -1.00917			 -0.21062
	107.50			  10.33442			  -1.08416			 -0.07148
	107.75			  10.23769			  -1.20027			 -0.21428
	108.00			  10.26824			  -1.31324			 -0.30238
	108.25			  10.31319			  -1.35769			 -0.33981
	108.50			  10.33399			  -1.10315			 -0.10009
	108.75			  10.23238			  -0.99781			 -0.09834
	109.00			  10.37699			  -1.09884			 0.17155
	109.25			  10.43462			  -0.85136			 -0.12552
	109.50			  10.24473			  -0.50440			 -0.08785
	109.75			  10.42129			  -0.45722			 -0.08505
	110.00			  10.50189			  -0.56961			 -0.02074
	110.25			  10.53297			  -0.80143			 0.14566
	110.50			  10.49322			  -0.94084			 0.05379
	110.75			  10.57197			  -0.78948			 0.04671
	111.00			  10.36692			  -0.76423			 0.06658
	111.25			  10.28578			  -0.82532			 0.30638
	111.50			  10.14226			  -0.85371			 0.10958
	111.75			  10.07261			  -0.95728			 0.22334
	112.00			  9.99028			  -0.92850			 0.15643
	112.25			  9.91977			  -1.04382			 -0.04893
	112.50			  9.88824			  -1.14270			 -0.16556
	112.75			  9.93266			  -0.97216			 -0.27073
	113.00			  9.79465			  -0.81102			 -0.18251
	113.25			  9.74082			  -0.88366			 -0.21758
	113.50			  9.67918			  -0.75698			 -0.19402
	113.75			  9.67008			  -0.59349			 -0.03940
	114.00			  9.91229			  -0.70451			 -0.08683
	114.25			  9.83311			  -0.59702			 -0.25343
	114.50			  9.96721			  -0.69864			 -0.01810
	114.75			  9.94490			  -0.84862			 -0.11148
	115.00			  9.94804			  -0.83373			 -0.31890
	115.25			  9.88207			  -0.81494			 -0.15021
	115.50			  9.64799			  -0.68806			 0.01196
	115.75			  9.75923			  -0.58821			 0.12610
	116.00			  9.77136			  -0.47699			 -0.00873
	116.25			  9.73497			  -0.49912			 -0.24655
	116.50			  9.77949			  -0.17586			 -0.09391
	116.75			  9.86311			  -0.25888			 -0.10266
	117.00			  9.92139			  -0.04781			 -0.24561
	117.25			  9.85943			  -0.00238			 0.13314
	117.50			  9.76736			  -0.22853			 0.20876
	117.75			  9.90688			  -0.39495			 0.23317
	118.00			  10.06979			  -0.40083			 0.20907
	118.25			  9.93742			  -0.47425			 0.19243
	118.50			  9.93309			  -0.76638			 0.13489
	118.75			  9.87340			  -0.48678			 0.06226
	119.00			  9.81751			  -0.42276			 0.03198
	119.25			  9.85185			  -0.27493			 -0.01172
	119.50			  9.91987			  -0.49540			 0.11510
	119.75			  10.06849			  -0.57372			 0.00119
	120.00			  10.00317			  -0.38379			 0.05667
	120.25			  10.06827			  -0.39770			 0.04531
	120.50			  10.16381			  -0.52986			 -0.01720
	120.75			  10.18656			  -0.55727			 -0.18053
	121.00			  10.14670			  -0.39104			 -0.23072
	121.25			  10.02744			  -0.51733			 -0.21152
	121.50			  10.14973			  -0.74367			 -0.16241
	121.75			  10.17118			  -0.72526			 -0.04547
	122.00			  10.26542			  -0.73349			 -0.31610
	122.25			  10.36107			  -0.58488			 -0.19581
	122.50			  10.42476			  -0.53710			 -0.42484
	122.75			  10.24473			  -0.64518			 -0.23966
	123.00			  10.31471			  -0.73231			 0.12521
	123.25			  10.31796			  -0.77735			 0.17649
	123.50			  10.16046			  -0.71802			 0.28702
	123.75			  10.37461			  -0.59937			 0.14531
	124.00			  10.35327			  -0.64283			 -0.07066
	124.25			  10.45574			  -0.66790			 -0.07595
	124.50			  10.51803			  -0.56256			 -0.18100
	124.75			  10.63274			  -0.68924			 -0.02949
	125.00			  10.52247			  -0.80887			 0.15444
	125.25			  10.65722			  -0.84862			 0.30797
	125.50			  10.64303			  -0.61366			 0.21949
	125.75			  10.74702			  -0.35775			 0.22050
	126.00			  10.81992			  -0.43705			 0.27271
	126.25			  10.63274			  -0.25144			 0.49490
	126.50			  10.75276			  -0.28218			 0.32170
	126.75			  10.72579			  -0.40259			 0.35370
	127.00			  10.71615			  -0.52477			 0.35405
	127.25			  10.66827			  -0.27983			 0.35992
	127.50			  10.81493			  -0.23969			 0.23216
	127.75			  10.70250			  -0.19054			 0.27901
	128.00			  10.63945			  -0.33152			 0.46547
	128.25			  10.82425			  -0.18898			 0.32255
	128.50			  10.79305			  -0.31213			 0.13088
	128.75			  10.80042			  -0.23558			 0.35478
	129.00			  10.83140			  -0.26690			 0.39378
	129.25			  10.70206			  -0.59153			 0.27714
	129.50			  10.77735			  -0.49227			 0.17338
	129.75			  10.70098			  -0.30959			 0.16751
	130.00			  10.77356			  -0.17684			 0.32547
	130.25			  10.80291			  -0.35952			 0.36936
	130.50			  10.75492			  -0.09069			 0.10437
	130.75			  10.80248			  -0.15354			 -0.04636
	131.00			  10.82046			  -0.15158			 -0.02595
	131.25			  10.37472			  -0.13259			 -0.04943
	131.50			  10.31211			  -0.08697			 -0.16665
	131.75			  10.62126			  -0.10987			 -0.39269
	132.00			  10.72286			  -0.18721			 -0.51508
	132.25			  10.96788			  -0.37224			 -0.67358
	132.50			  10.89044			  -0.32114			 -0.63735
	132.75			  10.88589			  -0.19857			 -0.34642
	133.00			  10.88459			  -0.28374			 -0.22648
	133.25			  10.63165			  -0.28413			 -0.33737
	133.50			  10.74648			  -0.34209			 -0.46909
	133.75			  10.64649			  -0.49677			 -0.58782
	134.00			  10.72080			  -0.47112			 -0.39619
	134.25			  10.85057			  -0.20464			 -0.19083
	134.50			  10.65668			  -0.30489			 -0.30817
	134.75			  10.56265			  -0.76697			 -0.24417
	135.00			  10.54110			  -0.78988			 -0.13022
	135.25			  10.52637			  -0.70118			 -0.25269
	135.50			  10.52561			  -0.59663			 -0.22128
	135.75			  10.47621			  -0.53240			 -0.10044
	136.00			  10.29304			  -0.35775			 -0.04862
	136.25			  10.18353			  -0.36617			 0.18310
	136.50			  10.09481			  -0.39261			 0.07054
	136.75			  10.22762			  -0.47778			 -0.09088
	137.00			  10.30192			  -0.21286			 -0.15522
	137.25			  10.50925			  -0.11046			 -0.39969
	137.50			  10.53871			  0.02366			 -0.22128
	137.75			  10.49084			  -0.02431			 -0.29507
	138.00			  10.36995			  -0.00082			 -0.24752
	138.25			  10.32305			  0.05048			 -0.24071
	138.50			  10.49820			  -0.15119			 -0.28920
	138.75			  10.64325			  -0.20170			 -0.25856
	139.00			  10.44133			  -0.01433			 -0.11689
	139.25			  10.40830			  -0.02333			 -0.22361
	139.50			  10.54933			  0.12841			 -0.15215
	139.75			  10.43830			  -0.09206			 -0.10254
	140.00			  10.24321			  -0.08403			 0.20693
	140.25			  10.03069			  -0.05701			 0.33671
	140.50			  10.05430			  -0.18565			 0.28924
	140.75			  10.09470			  -0.33308			 0.16692
	141.00			  10.09037			  -0.51557			 -0.00822
	141.25			  10.15190			  -0.52536			 0.05943
	141.50			  10.16013			  -0.45056			 0.11113
	141.75			  10.02874			  -0.18154			 -0.02261
	142.00			  9.70323			  -0.15608			 0.10666
	142.25			  9.61246			  0.14074			 0.29374
	142.50			  9.58169			  0.11510			 0.50135
	142.75			  9.56436			  -0.04213			 0.37333
	143.00			  9.61235			  -0.28531			 0.25817
	143.25			  9.54270			  -0.47739			 0.26466
	143.50			  9.52645			  -0.50734			 0.20899
	143.75			  9.71558			  -0.53201			 0.01864
	144.00			  9.66857			  -0.52183			 0.04224
	144.25			  9.66998			  -0.57548			 0.04870
	144.50			  9.65784			  -0.51028			 -0.09834
	144.75			  9.60715			  -0.51831			 -0.09430
	145.00			  9.66965			  -0.70392			 -0.16471
	145.25			  9.83647			  -0.88660			 0.02202
	145.50			  9.84643			  -0.91284			 -0.32730
	145.75			  10.09005			  -0.72859			 0.16560
	146.00			  9.88759			  -0.44899			 0.05328
	146.25			  9.83506			  -0.52438			 0.21195
	146.50			  10.00133			  -0.42080			 0.18784
	146.75			  10.05636			  -0.52222			 0.02175
	147.00			  10.03285			  -0.29882			 0.02506
	147.25			  10.22155			  -0.08129			 0.04636
	147.50			  10.32825			  0.09336			 -0.04150
	147.75			  10.27928			  0.15112			 -0.08042
	148.00			  10.44307			  0.08573			 -0.06541
	148.25			  10.56374			  0.30149			 0.03633
	148.50			  10.28037			  0.38862			 0.06996
	148.75			  10.54142			  0.05264			 0.24942
	149.00			  10.36908			  -0.17977			 0.19056
	149.25			  10.36735			  -0.25476			 0.36279
	149.50			  10.24061			  -0.54454			 0.22299
	149.75			  10.28925			  -0.58253			 0.16852
	150.00			  10.27636			  -0.48169			 0.18119
	150.25			  10.26477			  -0.53632			 -0.17353
	150.50			  10.48336			  -0.48111			 -0.27209
	150.75			  10.39508			  -0.59858			 -0.22108
	151.00			  10.42964			  -0.44586			 -0.21941
	151.25			  10.32803			  -0.47269			 -0.19748
	151.50			  10.19967			  -0.44234			 -0.21929
	151.75			  10.24191			  -0.50499			 -0.09998
	152.00			  10.05528			  -0.52183			 -0.13570
	152.25			  9.95898			  -0.41121			 -0.01950
	152.50			  10.05983			  -0.45232			 0.01678
	152.75			  10.23195			  -0.38497			 -0.04601
	153.00			  10.20693			  -0.36049			 -0.27053
	153.25			  10.26574			  -0.51478			 -0.17466
	153.50			  10.34926			  -0.63755			 -0.19033
	153.75			  10.22480			  -0.57489			 -0.08971
	154.00			  10.34688			  -0.55159			 -0.15775
	154.25			  10.14117			  -0.49129			 -0.12128
	154.50			  10.26282			  -0.48365			 -0.10534
	154.75			  10.25556			  -0.14101			 0.03128
	155.00			  10.22837			  -0.21365			 0.06032
	155.25			  10.51391			  -0.33132			 0.10573
	155.50			  10.46137			  -0.37322			 0.13314
	155.75			  10.66318			  -0.54043			 0.08442
	156.00			  10.69968			  -0.28922			 0.12295
	156.25			  10.59678			  -0.12495			 -0.34677
	156.50			  10.54413			  -0.16274			 -0.22474
	156.75			  10.59504			  -0.00708			 -0.00531
	157.00			  10.59753			  -0.05094			 -0.00033
	157.25			  10.44588			  -0.02803			 0.00888
	157.50			  10.56070			  0.00173			 -0.07435
	157.75			  10.46787			  0.10570			 0.05546
	158.00			  10.40710			  0.30502			 -0.00021
	158.25			  10.49030			  0.19870			 0.14301
	158.50			  10.27723			  0.25020			 0.03276
	158.75			  10.06773			  0.32616			 -0.01930
	159.00			  9.92973			  0.29738			 0.18722
	159.25			  9.73703			  0.19616			 0.15460
	159.50			  9.68427			  0.05205			 0.02125
	159.75			  9.71363			  -0.03528			 -0.07540
	160.00			  9.84773			  -0.07620			 -0.07439
	160.25			  9.80819			  0.10863			 -0.13905
	160.50			  9.93547			  0.32186			 -0.24907
	160.75			  9.87178			  0.19185			 -0.17548
	161.00			  9.83116			  0.16013			 -0.10075
	161.25			  9.98357			  0.17521			 -0.02821
	161.50			  10.02581			  0.30502			 -0.42780
	161.75			  9.94728			  0.40546			 -0.52725
	162.00			  9.85986			  0.22611			 -0.30552
	162.25			  10.13413			  0.39606			 -0.08975
	162.50			  10.07293			  0.31814			 0.03777
	162.75			  9.92128			  0.24452			 0.06856
	163.00			  9.96905			  0.30561			 0.07233
	163.25			  10.12893			  0.48456			 -0.17034
	163.50			  10.00252			  0.30541			 -0.38760
	163.75			  10.02560			  0.16992			 -0.55193
	164.00			  10.30528			  0.26860			 -0.61282
	164.25			  10.18418			  0.10080			 -0.55330
	164.50			  10.04033			  -0.05211			 -0.58766
	164.75			  10.02419			  0.04774			 -0.57705