--------------TurbSim v2.00.* User Time Series Input File-----------------------
     Time series input from low-res turbsim run
--------------------------------------------------------------------------------
          3 nComp - Number of velocity components in the file
          1 nPoints - Number of time series points contained in this file (-)
          1 RefPtID - Index of the reference point (1-nPoints)
     Pointyi Pointzi ! nPoints listed in order of increasing height
       (m)     (m)
       3.86487   94.00000
--------Time Series-------------------------------------------------------------
Elapsed Time         Point01u             Point01v           Point01w
         (s)            (m/s)                (m/s)              (m/s)
	0.00			  9.58671			  -0.02218			 0.22152
	0.25			  9.64642			  0.03589			 0.24271
	0.50			  9.69282			  0.12206			 0.12579
	0.75			  9.58090			  -0.11078			 0.07826
	1.00			  9.41606			  -0.21550			 0.14539
	1.25			  9.39316			  -0.18553			 0.03857
	1.50			  9.34561			  -0.30635			 -0.05293
	1.75			  9.50790			  -0.24678			 0.09855
	2.00			  9.57130			  -0.40376			 0.23899
	2.25			  9.55079			  -0.32846			 0.18016
	2.50			  9.35855			  -0.14619			 0.07025
	2.75			  9.40417			  -0.34719			 0.02308
	3.00			  9.37705			  -0.58865			 0.02685
	3.25			  9.21986			  -0.61020			 0.02218
	3.50			  9.17707			  -0.51691			 -0.05533
	3.75			  9.26724			  -0.59783			 0.04640
	4.00			  9.27243			  -0.36086			 -0.09801
	4.25			  9.38568			  -0.41631			 -0.13047
	4.50			  9.56945			  -0.32096			 -0.09042
	4.75			  9.74944			  -0.32958			 0.07385
	5.00			  9.70471			  -0.39084			 0.16790
	5.25			  9.57553			  -0.18459			 0.14959
	5.50			  9.51116			  0.02315			 0.25071
	5.75			  9.50544			  0.09134			 0.22554
	6.00			  9.42081			  0.05762			 0.17015
	6.25			  9.38964			  0.11232			 0.10130
	6.50			  9.47875			  0.19868			 0.04751
	6.75			  9.57139			  0.14398			 0.04052
	7.00			  9.55431			  0.12356			 0.06180
	7.25			  9.55484			  -0.00288			 0.06974
	7.50			  9.48104			  -0.09561			 0.11629
	7.75			  9.51477			  -0.00794			 0.10496
	8.00			  9.45868			  0.05612			 0.14434
	8.25			  9.44124			  -0.09318			 -0.05761
	8.50			  9.49460			  -0.09074			 -0.01208
	8.75			  9.72470			  -0.02799			 -0.07999
	9.00			  9.80571			  0.11026			 -0.13865
	9.25			  9.75490			  0.13855			 0.03360
	9.50			  9.71096			  0.05313			 0.26582
	9.75			  9.73412			  0.09808			 0.05641
	10.00			  9.79039			  0.13517			 0.10424
	10.25			  10.04021			  0.07954			 0.00791
	10.50			  9.89994			  -0.19770			 0.02032
	10.75			  9.82359			  -0.37192			 0.18307
	11.00			  9.86374			  -0.35431			 0.12570
	11.25			  9.66720			  -0.44703			 0.02098
	11.50			  9.65381			  -0.27882			 0.24912
	11.75			  9.71167			  -0.23255			 0.13481
	12.00			  9.75455			  -0.30242			 -0.13373
	12.25			  9.63655			  -0.36592			 -0.06474
	12.50			  9.64712			  -0.28163			 0.01591
	12.75			  9.65126			  -0.45771			 -0.03848
	13.00			  9.54436			  -0.41069			 -0.18735
	13.25			  9.46731			  -0.46558			 -0.11683
	13.50			  9.47955			  -0.46183			 -0.14449
	13.75			  9.70806			  -0.39796			 -0.19757
	14.00			  9.89095			  -0.42287			 -0.21867
	14.25			  9.79303			  -0.32284			 -0.12714
	14.50			  9.80853			  -0.53470			 -0.23944
	14.75			  9.68789			  -0.60551			 -0.20968
	15.00			  9.64184			  -0.62162			 -0.23480
	15.25			  9.63321			  -0.48244			 -0.18412
	15.50			  9.79453			  -0.54632			 -0.22614
	15.75			  9.89298			  -0.51185			 -0.29720
	16.00			  9.68032			  -0.47963			 -0.13179
	16.25			  9.58592			  -0.50080			 -0.15136
	16.50			  9.49408			  -0.44554			 -0.04592
	16.75			  9.32870			  -0.19677			 0.02119
	17.00			  9.34015			  -0.23236			 0.11119
	17.25			  9.22074			  -0.28818			 0.00635
	17.50			  9.17451			  -0.15499			 0.18292
	17.75			  9.31083			  -0.31684			 0.10241
	18.00			  9.38981			  -0.14357			 0.02302
	18.25			  9.38585			  -0.06227			 0.12645
	18.50			  9.39985			  -0.18796			 0.10427
	18.75			  9.20648			  -0.05440			 0.04505
	19.00			  9.14774			  -0.12914			 0.02629
	19.25			  9.29612			  0.04432			 0.13709
	19.50			  9.27921			  0.21554			 0.12240
	19.75			  9.20516			  0.47330			 0.21181
	20.00			  9.32527			  0.38900			 0.13490
	20.25			  9.36754			  0.32737			 0.11764
	20.50			  9.23888			  0.16459			 0.09507
	20.75			  9.28776			  0.15690			 0.11203
	21.00			  9.31673			  0.16028			 0.06576
	21.25			  9.27692			  0.13330			 0.06855
	21.50			  9.27235			  0.03514			 0.19554
	21.75			  9.19785			  0.08329			 0.21601
	22.00			  9.11490			  0.08010			 0.17692
	22.25			  9.31981			  -0.04147			 0.15519
	22.50			  9.32298			  -0.12708			 0.28176
	22.75			  9.34508			  -0.12315			 0.21906
	23.00			  9.39122			  -0.05833			 0.26348
	23.25			  9.29225			  -0.10460			 0.13161
	23.50			  9.37969			  -0.09055			 0.18049
	23.75			  9.50429			  -0.09599			 0.14168
	24.00			  9.52173			  -0.23798			 0.12672
	24.25			  9.50772			  -0.29080			 0.16592
	24.50			  9.58222			  -0.19546			 0.17869
	24.75			  9.74707			  -0.11790			 0.00761
	25.00			  9.80519			  -0.15687			 0.06591
	25.25			  9.62995			  -0.12165			 0.34980
	25.50			  9.72646			  -0.02405			 0.51075
	25.75			  9.79268			  0.06680			 0.28161
	26.00			  9.74258			  -0.06601			 0.21178
	26.25			  9.82843			  -0.17616			 0.23639
	26.50			  9.76168			  -0.19489			 0.13173
	26.75			  9.73632			  -0.13364			 -0.10940
	27.00			  9.64122			  -0.07931			 -0.01247
	27.25			  9.68340			  -0.24716			 0.05371
	27.50			  9.74214			  -0.21119			 0.13736
	27.75			  9.75402			  -0.26758			 0.04322
	28.00			  9.75895			  -0.26552			 -0.13376
	28.25			  9.98271			  -0.26383			 -0.17048
	28.50			  9.95039			  -0.35918			 -0.11326
	28.75			  9.83442			  -0.49593			 -0.17890
	29.00			  9.69626			  -0.47232			 -0.07781
	29.25			  9.45956			  -0.44816			 -0.06414
	29.50			  9.57289			  -0.20314			 -0.20009
	29.75			  9.46211			  -0.41519			 -0.13844
	30.00			  9.41923			  -0.10629			 -0.02128
	30.25			  9.54127			  -0.17223			 0.14311
	30.50			  9.52419			  -0.07463			 0.12360
	30.75			  9.49355			  -0.25615			 0.08842
	31.00			  9.49055			  -0.26683			 0.04748
	31.25			  9.49513			  -0.23573			 0.06237
	31.50			  9.50094			  -0.15930			 -0.03995
	31.75			  9.61921			  -0.05833			 0.15061
	32.00			  9.77375			  -0.13420			 0.12366
	32.25			  9.68243			  -0.10779			 -0.12825
	32.50			  9.59385			  -0.24622			 0.02464
	32.75			  9.42513			  -0.31965			 0.12492
	33.00			  9.55466			  -0.38391			 0.25161
	33.25			  9.65144			  -0.27020			 0.24058
	33.50			  9.44124			  -0.39721			 0.24661
	33.75			  9.38110			  -0.48712			 0.38756
	34.00			  9.57932			  -0.45809			 0.40321
	34.25			  9.57095			  -0.34045			 0.37075
	34.50			  9.38682			  -0.23835			 0.36056
	34.75			  9.39818			  -0.25371			 0.18993
	35.00			  9.42389			  -0.49986			 0.19443
	35.25			  9.29436			  -0.49256			 0.46882
	35.50			  9.33821			  -0.38859			 0.20884
	35.75			  9.38664			  -0.43804			 0.05994
	36.00			  9.49777			  -0.17035			 -0.05668
	36.25			  9.53837			  0.00067			 0.02125
	36.50			  9.46854			  0.00105			 0.25659
	36.75			  9.73659			  -0.08905			 0.21747
	37.00			  9.80157			  -0.09805			 0.19685
	37.25			  9.85899			  -0.32246			 0.09948
	37.50			  9.80325			  -0.44778			 0.06690
	37.75			  9.88074			  -0.42943			 0.11185
	38.00			  9.92899			  -0.47888			 0.06804
	38.25			  10.12440			  -0.41800			 0.14293
	38.50			  10.32173			  -0.49817			 0.15322
	38.75			  10.26608			  -0.39290			 0.21181
	39.00			  10.31716			  -0.33052			 -0.01151
	39.25			  10.26300			  -0.07463			 0.02623
	39.50			  10.28959			  0.05032			 0.22446
	39.75			  10.40090			  0.00067			 0.30700
	40.00			  10.33935			  -0.21007			 0.21984
	40.25			  10.30342			  -0.18328			 0.37590
	40.50			  10.20479			  -0.30261			 0.21229
	40.75			  10.07218			  -0.20164			 0.21756
	41.00			  10.09701			  -0.18815			 0.10628
	41.25			  10.40495			  -0.07369			 0.24484
	41.50			  10.30782			  -0.12015			 0.10649
	41.75			  10.44061			  -0.14113			 0.17429
	42.00			  10.40107			  -0.16324			 0.16140
	42.25			  10.39676			  -0.10310			 -0.15408
	42.50			  10.40627			  0.03439			 -0.16113
	42.75			  10.26124			  0.14079			 -0.13694
	43.00			  10.27682			  0.15091			 -0.17231
	43.25			  10.23324			  0.09771			 0.00938
	43.50			  10.27735			  0.19137			 0.18331
	43.75			  10.25226			  0.14117			 0.10568
	44.00			  10.21316			  0.14454			 0.08917
	44.25			  10.21730			  0.25319			 -0.03462
	44.50			  10.00006			  0.22322			 0.07817
	44.75			  10.09613			  0.26218			 -0.07184
	45.00			  10.07491			  0.22959			 -0.03806
	45.25			  10.14738			  0.26649			 -0.10931
	45.50			  10.13021			  0.27529			 -0.15247
	45.75			  10.10309			  0.15616			 -0.04933
	46.00			  10.09023			  0.12618			 0.04882
	46.25			  10.07720			  0.00367			 -0.02197
	46.50			  10.03502			  0.09696			 0.18888
	46.75			  10.01943			  0.00330			 0.21798
	47.00			  10.02313			  -0.17185			 0.17758
	47.25			  9.99794			  -0.06770			 0.24763
	47.50			  10.08724			  0.02952			 0.12759
	47.75			  10.25111			  0.03645			 0.15489
	48.00			  10.26608			  0.03364			 0.08512
	48.25			  10.30624			  0.04076			 0.05149
	48.50			  10.16085			  -0.05459			 -0.09840
	48.75			  10.11955			  -0.18403			 -0.07211
	49.00			  10.07297			  -0.04616			 -0.15834
	49.25			  10.14747			  0.04357			 0.10685
	49.50			  10.10088			  -0.04091			 0.00707
	49.75			  10.10819			  0.03439			 0.00213
	50.00			  10.16288			  -0.14507			 0.00773
	50.25			  10.13311			  -0.13945			 0.14503
	50.50			  10.15469			  0.01341			 0.24292
	50.75			  10.11814			  0.09527			 0.14380
	51.00			  9.96915			  0.13311			 0.17740
	51.25			  10.05721			  -0.12371			 0.15516
	51.50			  10.17151			  -0.45059			 0.08245
	51.75			  10.16147			  -0.27844			 0.08977
	52.00			  10.00701			  -0.20763			 0.23645
	52.25			  10.06716			  -0.19190			 0.20579
	52.50			  10.15134			  -0.30242			 0.04918
	52.75			  10.23931			  -0.20613			 -0.04909
	53.00			  10.30104			  -0.23966			 0.08713
	53.25			  10.18551			  -0.02143			 0.10011
	53.50			  9.95937			  -0.04372			 -0.05922
	53.75			  10.02110			  0.03083			 0.24688
	54.00			  10.01133			  -0.06976			 0.25683
	54.25			  10.14958			  0.06455			 0.10241
	54.50			  10.17873			  0.12731			 0.02209
	54.75			  10.15839			  0.22172			 0.10886
	55.00			  10.19784			  0.13461			 -0.17456
	55.25			  10.13831			  0.18538			 -0.25755
	55.50			  10.40248			  0.25488			 -0.37701
	55.75			  10.35220			  0.07429			 -0.38337
	56.00			  10.13796			  0.13836			 -0.30817
	56.25			  10.13320			  0.28822			 -0.20309
	56.50			  9.99160			  0.22921			 -0.13026
	56.75			  10.04118			  0.21704			 -0.12330
	57.00			  9.97804			  -0.03117			 -0.13472
	57.25			  9.87810			  -0.14862			 -0.13005
	57.50			  9.92988			  -0.06470			 0.05674
	57.75			  9.90363			  -0.11547			 -0.06822
	58.00			  9.82148			  -0.16867			 0.05116
	58.25			  9.79664			  -0.24173			 -0.10211
	58.50			  9.94520			  -0.14975			 -0.03782
	58.75			  9.74416			  0.03627			 -0.00968
	59.00			  9.88171			  -0.00195			 0.16098
	59.25			  9.80862			  -0.06508			 0.01370
	59.50			  10.04118			  -0.10479			 0.00288
	59.75			  10.13162			  -0.08475			 -0.16571
	60.00			  9.85177			  -0.12896			 -0.19694
	60.25			  9.77516			  -0.15125			 -0.43914
	60.50			  9.76952			  -0.09973			 -0.54578
	60.75			  9.73148			  -0.01675			 -0.30059
	61.00			  9.82738			  0.00929			 -0.30877
	61.25			  10.01881			  -0.21438			 -0.19580
	61.50			  10.06760			  -0.22711			 -0.18037
	61.75			  10.15909			  -0.36630			 -0.28203
	62.00			  10.24671			  -0.22449			 -0.27271
	62.25			  10.19440			  -0.25615			 0.00677
	62.50			  10.04629			  -0.40133			 0.04088
	62.75			  10.05386			  -0.28163			 -0.01220
	63.00			  9.94617			  -0.16642			 -0.12999
	63.25			  10.00587			  -0.20463			 -0.17048
	63.50			  9.82438			  -0.04447			 -0.07268
	63.75			  9.89456			  0.02447			 -0.13976
	64.00			  10.05448			  -0.10516			 -0.21178
	64.25			  10.19828			  -0.14432			 -0.24070
	64.50			  10.11823			  -0.05159			 -0.33622
	64.75			  10.08336			  -0.14825			 -0.30976
	65.00			  10.02260			  -0.37697			 -0.42605
	65.25			  10.02419			  -0.47307			 -0.21202
	65.50			  10.05809			  -0.57723			 -0.04795
	65.75			  10.04453			  -0.53096			 0.01855
	66.00			  9.99838			  -0.56505			 0.02284
	66.25			  10.00517			  -0.57273			 -0.10955
	66.50			  10.01556			  -0.47176			 -0.02626
	66.75			  10.00296			  -0.49649			 -0.18019
	67.00			  9.94529			  -0.57311			 -0.20731
	67.25			  9.96792			  -0.52796			 -0.04855
	67.50			  9.98658			  -0.47663			 -0.04385
	67.75			  10.03009			  -0.52571			 0.09432
	68.00			  10.01829			  -0.49068			 0.18633
	68.25			  10.07869			  -0.41294			 0.32552
	68.50			  10.22945			  -0.33408			 0.39482
	68.75			  10.31566			  -0.41688			 0.30982
	69.00			  10.27401			  -0.26065			 0.24993
	69.25			  10.06223			  -0.19433			 0.24679
	69.50			  10.11629			  -0.22131			 0.20237
	69.75			  10.04435			  -0.29624			 -0.00698
	70.00			  9.89932			  -0.19283			 0.02029
	70.25			  10.06320			  -0.23142			 0.01996
	70.50			  10.09261			  -0.21138			 -0.05311
	70.75			  9.93683			  -0.12315			 0.11623
	71.00			  9.92107			  -0.21288			 0.20917
	71.25			  10.07596			  -0.25296			 0.06738
	71.50			  10.10071			  -0.29268			 0.00498
	71.75			  10.03414			  -0.19059			 -0.07745
	72.00			  9.98324			  -0.39964			 0.07118
	72.25			  10.04153			  -0.31047			 0.19023
	72.50			  10.13998			  -0.24866			 0.07202
	72.75			  10.16517			  -0.19770			 -0.05026
	73.00			  10.19757			  -0.21007			 0.14620
	73.25			  10.15883			  -0.26645			 -0.12750
	73.50			  10.07050			  -0.23667			 -0.25794
	73.75			  10.01969			  -0.04990			 -0.25332
	74.00			  9.88902			  0.04451			 -0.18451
	74.25			  10.07015			  -0.12015			 -0.26615
	74.50			  10.09305			  -0.06002			 -0.01253
	74.75			  10.13118			  -0.18478			 0.06980
	75.00			  10.12263			  -0.00644			 0.18049
	75.25			  10.22769			  0.11363			 0.03024
	75.50			  10.30941			  0.18856			 -0.06537
	75.75			  10.25050			  0.20449			 -0.16613
	76.00			  10.16834			  0.11719			 -0.13829
	76.25			  10.22056			  0.03533			 -0.02841
	76.50			  10.21923			  0.24420			 -0.04876
	76.75			  10.21430			  0.16608			 -0.01583
	77.00			  10.21650			  0.01510			 -0.04595
	77.25			  10.15213			  -0.17747			 0.10655
	77.50			  10.32728			  -0.28256			 -0.01921
	77.75			  10.24495			  -0.40732			 -0.08149
	78.00			  10.18753			  -0.32490			 -0.03207
	78.25			  10.04488			  -0.32677			 -0.11509
	78.50			  10.19960			  -0.36499			 -0.16475
	78.75			  10.22883			  -0.18590			 -0.19164
	79.00			  10.17767			  -0.14113			 -0.41355
	79.25			  10.17582			  -0.03979			 -0.28287
	79.50			  10.14676			  -0.01918			 -0.27496
	79.75			  10.13849			  -0.12727			 -0.21256
	80.00			  10.26185			  -0.20557			 -0.18525
	80.25			  10.27357			  -0.15986			 -0.08065
	80.50			  10.24187			  -0.06807			 0.14129
	80.75			  10.22100			  -0.06882			 -0.17524
	81.00			  10.35590			  -0.20913			 -0.40384
	81.25			  10.46773			  0.05893			 -0.22757
	81.50			  10.42221			  0.10202			 -0.21004
	81.75			  10.28105			  0.13667			 -0.12543
	82.00			  10.16314			  -0.06320			 -0.18759
	82.25			  10.09631			  -0.21475			 -0.10118
	82.50			  10.17115			  -0.19902			 0.00498
	82.75			  10.31936			  -0.18234			 -0.02883
	83.00			  10.21756			  -0.16942			 -0.36023
	83.25			  10.23588			  -0.05871			 -0.28248
	83.50			  10.17882			  -0.01881			 -0.18460
	83.75			  10.45620			  0.00854			 -0.22167
	84.00			  10.32341			  0.06755			 -0.31383
	84.25			  10.30527			  0.01472			 -0.24859
	84.50			  10.11392			  -0.16380			 -0.09513
	84.75			  10.26502			  -0.07744			 -0.10298
	85.00			  10.29963			  -0.14113			 -0.16002
	85.25			  10.15935			  -0.13720			 -0.21250
	85.50			  10.30192			  -0.11865			 -0.29225
	85.75			  10.12501			  -0.06077			 -0.25632
	86.00			  10.05448			  -0.02124			 -0.23938
	86.25			  10.25226			  -0.02724			 -0.20330
	86.50			  10.40970			  0.19250			 -0.33715
	86.75			  10.40504			  0.13293			 -0.06717
	87.00			  10.49996			  -0.01562			 -0.17096
	87.25			  10.30333			  0.07710			 -0.05185
	87.50			  10.43093			  0.17170			 -0.00626
	87.75			  10.27859			  0.05032			 -0.05077
	88.00			  10.21642			  0.10651			 -0.00069
	88.25			  10.26828			  -0.03454			 0.22146
	88.50			  10.28889			  -0.17391			 0.19712
	88.75			  10.25428			  -0.17953			 0.18175
	89.00			  10.33265			  -0.35862			 0.05626
	89.25			  10.37061			  -0.31591			 0.10169
	89.50			  10.36964			  -0.14319			 0.03776
	89.75			  10.35696			  -0.09617			 0.17479
	90.00			  10.31980			  -0.09561			 0.14704
	90.25			  10.32323			  -0.13214			 0.21867
	90.50			  10.29329			  -0.11247			 0.17644
	90.75			  10.14940			  -0.13083			 0.14060
	91.00			  10.13496			  -0.17260			 0.20093
	91.25			  10.30985			  -0.07782			 0.31168
	91.50			  10.42617			  -0.01038			 0.38085
	91.75			  10.30993			  0.06718			 0.39293
	92.00			  10.34674			  0.07298			 0.32792
	92.25			  10.39685			  0.04058			 0.27901
	92.50			  10.34938			  0.07916			 0.18783
	92.75			  10.24424			  0.04470			 0.03234
	93.00			  10.25217			  -0.08568			 0.07292
	93.25			  10.20515			  0.10295			 0.02047
	93.50			  10.22267			  -0.02817			 0.16487
	93.75			  10.34040			  -0.10460			 0.04142
	94.00			  10.22302			  -0.03361			 0.05269
	94.25			  10.30747			  -0.14787			 0.00219
	94.50			  10.09745			  -0.20351			 0.09819
	94.75			  9.99046			  -0.16548			 0.14012
	95.00			  10.06610			  -0.12914			 -0.11833
	95.25			  9.95982			  0.07542			 -0.22479
	95.50			  9.88329			  0.11625			 -0.05389
	95.75			  9.91781			  -0.07313			 -0.05503
	96.00			  9.94432			  -0.09299			 -0.06144
	96.25			  9.88409			  -0.05571			 0.00548
	96.50			  9.85062			  0.06418			 -0.00596
	96.75			  9.90707			  0.19418			 -0.04583
	97.00			  9.82500			  0.18313			 -0.00285
	97.25			  9.79268			  0.15897			 -0.07793
	97.50			  10.01335			  0.21198			 0.01028
	97.75			  10.02718			  0.13517			 -0.02449
	98.00			  9.99715			  0.31576			 -0.00204
	98.25			  10.19220			  0.20055			 -0.30508
	98.50			  10.13690			  0.11419			 -0.26552
	98.75			  10.15117			  -0.02911			 -0.42973
	99.00			  9.95427			  -0.04953			 -0.40645
	99.25			  10.04285			  -0.03192			 -0.27526
	99.50			  10.04770			  0.12319			 -0.16161
	99.75			  10.06777			  0.03289			 -0.22470
	100.00			  9.98694			  -0.09842			 -0.04163
	100.25			  10.03678			  -0.23573			 0.00800
	100.50			  10.04594			  -0.09898			 -0.02188
	100.75			  10.01124			  -0.16492			 -0.03908
	101.00			  10.13910			  -0.15424			 0.00378
	101.25			  9.94194			  0.15934			 -0.03399
	101.50			  10.03854			  -0.03604			 -0.07373
	101.75			  10.10520			  -0.17822			 -0.04897
	102.00			  10.26133			  -0.27619			 -0.13077
	102.25			  10.18868			  -0.23161			 -0.12591
	102.50			  10.13893			  -0.22412			 0.10011
	102.75			  10.31099			  -0.25709			 0.11134
	103.00			  10.18833			  -0.45659			 0.27322
	103.25			  10.17644			  -0.49892			 0.08644
	103.50			  10.15944			  -0.51691			 -0.08994
	103.75			  10.18630			  -0.37210			 -0.11620
	104.00			  10.22320			  -0.28987			 0.02688
	104.25			  10.23376			  -0.31759			 0.07604
	104.50			  10.07781			  -0.31141			 -0.00896
	104.75			  10.15777			  -0.34382			 0.03749
	105.00			  10.11092			  -0.10797			 -0.03135
	105.25			  10.08680			  -0.14694			 -0.01600
	105.50			  10.01468			  -0.23405			 -0.02095
	105.75			  10.02947			  -0.17766			 0.06162
	106.00			  10.08979			  -0.17878			 0.18849
	106.25			  10.04814			  -0.13645			 0.13394
	106.50			  10.12977			  -0.18141			 0.13460
	106.75			  10.14711			  -0.20595			 0.05773
	107.00			  10.17644			  0.13667			 -0.11206
	107.25			  10.31020			  0.19624			 -0.20492
	107.50			  10.42238			  0.17995			 -0.16775
	107.75			  10.40125			  0.10689			 -0.13934
	108.00			  10.48473			  0.10520			 -0.29879
	108.25			  10.48579			  -0.10816			 -0.40045
	108.50			  10.55923			  -0.21756			 -0.26474
	108.75			  10.68823			  -0.24360			 -0.12549
	109.00			  10.60484			  -0.08044			 -0.35771
	109.25			  10.55042			  -0.07650			 -0.56212
	109.50			  10.48482			  -0.07482			 -0.61610
	109.75			  10.42467			  -0.11022			 -0.70251
	110.00			  10.37219			  0.20392			 -0.58529
	110.25			  10.32288			  0.15054			 -0.55816
	110.50			  10.21386			  0.00798			 -0.55532
	110.75			  10.02163			  0.04001			 -0.52915
	111.00			  10.03044			  0.15578			 -0.35346
	111.25			  10.04532			  0.00049			 -0.28926
	111.50			  10.20418			  -0.01918			 -0.28935
	111.75			  10.11823			  -0.06377			 -0.35684
	112.00			  10.06267			  -0.08531			 -0.53239
	112.25			  10.18701			  -0.25896			 -0.50370
	112.50			  10.15046			  -0.39852			 -0.55064
	112.75			  10.18929			  -0.40170			 -0.60974
	113.00			  10.23966			  -0.31778			 -0.36802
	113.25			  10.19229			  -0.36611			 -0.52912
	113.50			  10.13628			  -0.34045			 -0.39590
	113.75			  10.13849			  -0.31403			 -0.38747
	114.00			  10.28026			  -0.45546			 -0.43573
	114.25			  10.31117			  -0.39421			 -0.23162
	114.50			  10.43093			  -0.39290			 -0.22545
	114.75			  10.35925			  -0.42006			 -0.15945
	115.00			  10.22373			  -0.30167			 -0.00153
	115.25			  10.18965			  -0.34157			 -0.09024
	115.50			  10.30694			  -0.42118			 0.08326
	115.75			  10.21959			  -0.31385			 0.16472
	116.00			  10.20752			  -0.32808			 0.10886
	116.25			  10.30641			  -0.27395			 0.00504
	116.50			  10.30492			  -0.37285			 -0.15387
	116.75			  10.17283			  -0.40807			 0.00956
	117.00			  10.10643			  -0.52534			 0.00396
	117.25			  10.15143			  -0.51597			 -0.00758
	117.50			  10.36717			  -0.36161			 -0.06480
	117.75			  10.25014			  -0.34288			 -0.17836
	118.00			  10.26476			  -0.33595			 -0.28710
	118.25			  10.29294			  -0.28312			 -0.55801
	118.50			  10.40107			  -0.16417			 -0.37641
	118.75			  10.63055			  -0.16342			 -0.23792
	119.00			  10.74353			  -0.25353			 -0.32306
	119.25			  10.80579			  -0.13963			 -0.49945
	119.50			  10.78360			  -0.02274			 -0.34174
	119.75			  10.57781			  -0.00588			 -0.28479
	120.00			  10.47293			  -0.10104			 -0.12963
	120.25			  10.59058			  -0.13439			 -0.10562
	120.50			  10.58626			  0.09677			 -0.22317
	120.75			  10.56486			  0.01116			 -0.29720
	121.00			  10.62219			  0.05050			 -0.28494
	121.25			  10.40178			  0.16683			 -0.11329
	121.50			  10.40935			  0.25319			 0.02958
	121.75			  10.55500			  0.21142			 -0.12279
	122.00			  10.40645			  0.15672			 -0.21409
	122.25			  10.36594			  0.21235			 0.04304
	122.50			  10.40592			  0.40211			 -0.04628
	122.75			  10.27718			  0.46506			 -0.03057
	123.00			  10.21360			  0.52219			 0.08980
	123.25			  10.16129			  0.42478			 0.02485
	123.50			  10.15654			  0.43658			 -0.03423
	123.75			  10.21879			  0.43078			 0.05473
	124.00			  10.01415			  0.53755			 0.04661
	124.25			  10.01124			  0.31388			 -0.11206
	124.50			  10.19088			  0.20467			 0.06567
	124.75			  10.15654			  0.19531			 0.09213
	125.00			  10.20242			  0.19587			 0.06468
	125.25			  10.06135			  0.20242			 -0.00342
	125.50			  10.06055			  0.21910			 -0.05218
	125.75			  10.01793			  0.37477			 -0.18259
	126.00			  9.97505			  0.26162			 -0.06456
	126.25			  10.16605			  0.18931			 0.00587
	126.50			  10.24204			  0.06062			 -0.28959
	126.75			  10.27269			  0.14604			 -0.15040
	127.00			  10.29840			  0.14548			 -0.00513
	127.25			  10.20303			  0.06343			 0.06980
	127.50			  10.26001			  0.22097			 0.01364
	127.75			  10.26626			  0.20336			 0.11557
	128.00			  10.16869			  0.16852			 0.00899
	128.25			  10.14659			  0.26368			 -0.02083
	128.50			  10.14465			  0.47986			 -0.08011
	128.75			  10.28158			  0.58869			 -0.08581
	129.00			  10.38989			  0.60911			 -0.10739
	129.25			  10.35282			  0.41879			 0.09384
	129.50			  10.31363			  0.34704			 0.18801
	129.75			  10.39597			  0.47498			 0.35492
	130.00			  10.27779			  0.38469			 0.21556
	130.25			  10.17450			  0.36765			 0.20761
	130.50			  10.22778			  0.41092			 0.10793
	130.75			  10.22945			  0.32887			 0.01897
	131.00			  10.28871			  0.23240			 0.16454
	131.25			  10.34789			  0.22172			 -0.07934
	131.50			  10.54884			  0.23483			 -0.26273
	131.75			  10.62826			  0.24663			 -0.51009
	132.00			  10.51317			  0.24439			 -0.61178
	132.25			  10.47883			  0.22472			 -0.54426
	132.50			  10.49362			  0.12000			 -0.46963
	132.75			  10.36198			  0.01491			 -0.13868
	133.00			  10.30712			  0.16215			 -0.28605
	133.25			  10.25375			  0.26836			 -0.40096
	133.50			  10.22786			  0.04938			 -0.35945
	133.75			  10.18128			  0.13705			 -0.20045
	134.00			  10.18463			  0.02540			 0.05215
	134.25			  10.06593			  0.07973			 0.05158
	134.50			  10.01353			  -0.05065			 -0.14401
	134.75			  9.83662			  -0.13551			 -0.04619
	135.00			  9.90267			  -0.06489			 0.03719
	135.25			  10.13329			  0.05331			 0.13523
	135.50			  10.18075			  0.04863			 0.04765
	135.75			  10.23799			  0.02915			 0.06878
	136.00			  10.32156			  0.08928			 -0.01013
	136.25			  10.35986			  0.19119			 -0.03018
	136.50			  10.46967			  0.25244			 -0.06893
	136.75			  10.52048			  0.16796			 -0.04268
	137.00			  10.48904			  0.12525			 0.02395
	137.25			  10.45109			  0.11719			 -0.17479
	137.50			  10.58406			  0.32681			 -0.20366
	137.75			  10.55500			  0.37814			 -0.04715
	138.00			  10.56953			  0.50514			 -0.08485
	138.25			  10.53897			  0.47180			 -0.12477
	138.50			  10.34437			  0.37514			 -0.08821
	138.75			  10.29329			  0.30283			 -0.24936
	139.00			  10.40513			  0.39294			 -0.25008
	139.25			  10.35528			  0.55610			 -0.17207
	139.50			  10.34199			  0.56546			 -0.15043
	139.75			  10.43172			  0.58101			 -0.03896
	140.00			  10.46412			  0.55816			 -0.04502
	140.25			  10.45787			  0.26331			 -0.05149
	140.50			  10.36515			  0.26780			 0.02023
	140.75			  10.27973			  0.21554			 0.05800
	141.00			  10.24204			  0.12731			 0.05557
	141.25			  10.28906			  0.14398			 0.08806
	141.50			  10.16754			  0.04095			 0.15316
	141.75			  10.15530			  -0.11172			 0.19625
	142.00			  10.15434			  -0.15162			 0.11548
	142.25			  10.12827			  -0.14188			 0.02856
	142.50			  10.13532			  -0.29568			 -0.06072
	142.75			  10.17177			  -0.35974			 0.00884
	143.00			  10.23024			  -0.25727			 0.00156
	143.25			  10.27542			  -0.11622			 -0.12666
	143.50			  10.24750			  0.08797			 0.08395
	143.75			  10.38276			  0.08366			 0.15211
	144.00			  10.52902			  0.02990			 0.39569
	144.25			  10.59656			  0.02971			 0.32130
	144.50			  10.53492			  0.18032			 0.20474
	144.75			  10.51555			  0.18219			 0.10280
	145.00			  10.58203			  0.10183			 0.13442
	145.25			  10.35203			  0.14585			 0.02407
	145.50			  10.30624			  0.26143			 0.06672
	145.75			  10.36453			  0.07092			 -0.11476
	146.00			  10.33618			  0.04994			 0.02530
	146.25			  10.31610			  0.00817			 0.08515
	146.50			  10.44220			  -0.20838			 0.12675
	146.75			  10.33274			  -0.06208			 -0.00429
	147.00			  10.29893			  -0.00363			 -0.05119
	147.25			  10.19784			  -0.23479			 -0.01666
	147.50			  10.18295			  -0.33914			 -0.10256
	147.75			  10.05184			  -0.36030			 -0.17674
	148.00			  10.03449			  -0.43598			 -0.25943
	148.25			  10.10326			  -0.27432			 -0.12984
	148.50			  9.97919			  -0.06826			 -0.23863
	148.75			  9.99469			  -0.05121			 -0.25173
	149.00			  10.08230			  -0.05852			 -0.15381
	149.25			  10.06813			  -0.19658			 -0.43321
	149.50			  10.03660			  -0.32115			 -0.29540
	149.75			  9.93842			  -0.41032			 -0.21478
	150.00			  9.97972			  -0.33895			 -0.12231
	150.25			  10.13443			  -0.08456			 0.04319
	150.50			  10.27638			  -0.05440			 -0.04265
	150.75			  10.21193			  -0.16324			 -0.12097
	151.00			  10.00173			  -0.20089			 0.05326
	151.25			  9.99231			  -0.20538			 -0.08569
	151.50			  10.17758			  -0.24585			 -0.21900
	151.75			  10.20294			  -0.17616			 -0.02470
	152.00			  10.00772			  -0.13570			 0.02748
	152.25			  10.01230			  -0.30542			 -0.00249
	152.50			  10.00464			  -0.17167			 -0.12342
	152.75			  9.98007			  -0.06339			 -0.14380
	153.00			  9.95788			  0.03233			 -0.30427
	153.25			  10.12413			  0.01416			 -0.36721
	153.50			  10.18357			  0.06287			 -0.13766
	153.75			  10.12105			  0.17264			 0.01295
	154.00			  10.04541			  0.05519			 -0.01810
	154.25			  10.05782			  0.20467			 -0.02925
	154.50			  10.04400			  0.15634			 0.02044
	154.75			  10.03299			  0.13405			 0.10688
	155.00			  9.89870			  0.07429			 0.01544
	155.25			  9.77481			  0.04432			 0.08035
	155.50			  9.70418			  0.03908			 0.30110
	155.75			  9.69520			  -0.04372			 0.42341
	156.00			  9.77886			  -0.02405			 0.46057
	156.25			  9.91121			  -0.14619			 0.35669
	156.50			  9.88646			  -0.31591			 0.19314
	156.75			  9.84490			  -0.23760			 0.02715
	157.00			  9.69414			  -0.26627			 0.04529
	157.25			  9.73025			  -0.27526			 -0.01768
	157.50			  9.85996			  -0.17316			 -0.08668
	157.75			  9.86903			  -0.05552			 0.12073
	158.00			  9.79462			  0.00555			 0.12255
	158.25			  9.82377			  0.01042			 0.07736
	158.50			  10.00834			  0.07635			 -0.01687
	158.75			  9.91209			  0.10314			 0.11338
	159.00			  9.80034			  -0.26308			 -0.05434
	159.25			  9.68877			  -0.40751			 -0.08125
	159.50			  9.72558			  -0.30935			 0.09792
	159.75			  9.70101			  -0.20576			 0.02829
	160.00			  9.62343			  -0.10966			 -0.14701
	160.25			  9.54480			  -0.12970			 -0.02557
	160.50			  9.29295			  0.06174			 0.04253
	160.75			  9.34288			  -0.03342			 -0.08224
	161.00			  9.36164			  -0.22243			 -0.04271
	161.25			  9.18147			  -0.22524			 0.03402
	161.50			  9.36595			  -0.42737			 -0.02440
	161.75			  9.43587			  -0.32958			 -0.10973
	162.00			  9.45568			  -0.22412			 -0.06944
	162.25			  9.47109			  -0.20857			 0.02308
	162.50			  9.30730			  -0.38578			 0.11860
	162.75			  9.31180			  -0.29998			 0.02017
	163.00			  9.37995			  -0.26627			 -0.04277
	163.25			  9.32271			  -0.34176			 0.05862
	163.50			  9.42962			  -0.45940			 0.13475
	163.75			  9.63356			  -0.44535			 0.08032
	164.00			  9.82517			  -0.44797			 0.12834
	164.25			  9.81038			  -0.55325			 0.13391
	164.50			  9.90628			  -0.45734			 0.05623
	164.75			  9.98773			  -0.37978			 0.06417
	165.00			  9.86815			  -0.47364			 -0.07460
	165.25			  9.90064			  -0.43973			 -0.01196
	165.50			  9.99345			  -0.37772			 0.10223