--------------TurbSim v2.00.* User Time Series Input File-----------------------
     Time series input from low-res turbsim run
--------------------------------------------------------------------------------
          3 nComp - Number of velocity components in the file
          1 nPoints - Number of time series points contained in this file (-)
          1 RefPtID - Index of the reference point (1-nPoints)
     Pointyi Pointzi ! nPoints listed in order of increasing height
       (m)     (m)
       1.40494   94.00000
--------Time Series-------------------------------------------------------------
Elapsed Time         Point01u             Point01v           Point01w
         (s)            (m/s)                (m/s)              (m/s)
	0.00			  9.84850			  0.14178			 -0.07630
	0.25			  9.97983			  0.14279			 -0.11883
	0.50			  10.04463			  0.09093			 -0.05813
	0.75			  10.14523			  0.10558			 -0.08009
	1.00			  10.07144			  -0.01817			 -0.05181
	1.25			  10.08898			  0.11400			 -0.07217
	1.50			  10.06510			  0.16232			 -0.03105
	1.75			  10.11743			  0.11181			 -0.05801
	2.00			  10.09083			  0.06702			 -0.05450
	2.25			  10.11836			  0.02695			 -0.00419
	2.50			  10.16142			  -0.10185			 0.05126
	2.75			  10.16177			  0.00304			 0.07334
	3.00			  10.12791			  -0.04275			 0.14014
	3.25			  10.08584			  -0.01312			 0.09282
	3.50			  10.09461			  0.05052			 0.01525
	3.75			  10.00300			  0.12949			 0.03421
	4.00			  9.98082			  0.15188			 0.06929
	4.25			  10.21696			  0.09733			 0.04097
	4.50			  10.19764			  0.10558			 0.03254
	4.75			  10.12399			  0.16602			 -0.01941
	5.00			  10.03087			  0.26082			 0.00057
	5.25			  10.00314			  0.25997			 -0.07065
	5.50			  10.01569			  0.27833			 -0.06870
	5.75			  10.13254			  0.22933			 -0.04078
	6.00			  10.09583			  0.28186			 0.06337
	6.25			  10.20077			  0.21435			 0.10102
	6.50			  10.29325			  0.08605			 -0.00672
	6.75			  10.22081			  0.13504			 -0.05213
	7.00			  10.26922			  0.13875			 -0.03281
	7.25			  10.27820			  0.09430			 -0.05408
	7.50			  10.13982			  0.18774			 -0.05349
	7.75			  10.22509			  0.20980			 -0.08507
	8.00			  10.22865			  0.17579			 -0.06575
	8.25			  10.13404			  0.28523			 -0.05735
	8.50			  10.09269			  0.16215			 0.05711
	8.75			  10.10110			  0.11669			 0.03633
	9.00			  10.15721			  0.21670			 0.00081
	9.25			  10.24911			  0.15138			 -0.05674
	9.50			  10.24484			  0.12881			 0.03232
	9.75			  10.21168			  -0.01851			 0.02745
	10.00			  10.21503			  0.04732			 0.00199
	10.25			  10.23122			  0.04446			 -0.00954
	10.50			  10.32034			  0.05069			 -0.08320
	10.75			  10.33274			  0.16788			 0.04407
	11.00			  10.25403			  0.18185			 -0.03671
	11.25			  10.16719			  0.21148			 -0.03177
	11.50			  10.16712			  0.24112			 -0.20811
	11.75			  10.20833			  0.25728			 -0.23405
	12.00			  10.17261			  0.25071			 -0.15102
	12.25			  10.25553			  0.45208			 -0.11323
	12.50			  10.18409			  0.42784			 -0.16188
	12.75			  10.19414			  0.25610			 -0.11079
	13.00			  10.24448			  0.25290			 -0.04429
	13.25			  10.18823			  0.17192			 -0.05382
	13.50			  10.22872			  0.17848			 0.04193
	13.75			  10.24177			  0.09666			 0.14684
	14.00			  10.24070			  0.17714			 0.06137
	14.25			  10.24106			  0.20980			 0.03649
	14.50			  10.30922			  0.06921			 0.07067
	14.75			  10.23029			  0.01937			 0.04610
	15.00			  10.22537			  -0.03434			 0.08020
	15.25			  10.30857			  -0.08754			 0.09822
	15.50			  10.29046			  -0.05269			 0.17875
	15.75			  10.31556			  0.08571			 0.20612
	16.00			  10.21083			  0.08942			 0.22740
	16.25			  10.16762			  0.01702			 0.09266
	16.50			  10.19229			  0.07090			 0.09326
	16.75			  10.15743			  0.06972			 0.19761
	17.00			  10.07080			  -0.06919			 0.22636
	17.25			  10.05162			  0.00809			 0.24615
	17.50			  10.08784			  -0.04999			 0.19033
	17.75			  10.05419			  0.04093			 0.18387
	18.00			  10.15058			  0.04766			 0.25612
	18.25			  10.26615			  -0.00285			 0.15039
	18.50			  10.29895			  -0.04696			 -0.00601
	18.75			  10.33766			  0.04732			 -0.07757
	19.00			  10.34408			  -0.01683			 -0.02066
	19.25			  10.27079			  0.02863			 0.16200
	19.50			  10.26580			  -0.07340			 0.10496
	19.75			  10.18651			  -0.02188			 0.07996
	20.00			  10.07850			  -0.05875			 0.06805
	20.25			  10.08584			  -0.08232			 0.03112
	20.50			  10.11308			  -0.05639			 -0.01364
	20.75			  10.12819			  -0.14613			 -0.09801
	21.00			  10.19051			  -0.13889			 0.01846
	21.25			  10.23920			  -0.06245			 0.02710
	21.50			  10.21703			  -0.03147			 0.03741
	21.75			  10.19343			  -0.08451			 0.02335
	22.00			  10.21760			  -0.00992			 -0.05991
	22.25			  10.14466			  -0.02491			 -0.16274
	22.50			  10.14652			  -0.04174			 -0.17082
	22.75			  10.15800			  -0.11145			 -0.09662
	23.00			  10.04556			  -0.16651			 -0.04756
	23.25			  10.11629			  -0.08501			 0.11898
	23.50			  10.22195			  -0.13923			 0.03723
	23.75			  10.23721			  -0.16869			 -0.00393
	24.00			  10.22801			  -0.09832			 0.04750
	24.25			  10.22865			  -0.08384			 -0.06387
	24.50			  10.18766			  -0.14866			 -0.00152
	24.75			  10.23414			  -0.27763			 0.07788
	25.00			  10.27371			  -0.40239			 0.04221
	25.25			  10.27934			  -0.43691			 -0.01017
	25.50			  10.23842			  -0.41350			 0.00426
	25.75			  10.30865			  -0.50611			 0.03090
	26.00			  10.27357			  -0.41317			 0.06590
	26.25			  10.23999			  -0.41384			 0.08100
	26.50			  10.20056			  -0.39414			 -0.00862
	26.75			  10.24198			  -0.29295			 -0.07432
	27.00			  10.29246			  -0.22863			 -0.05622
	27.25			  10.37823			  -0.11296			 -0.06543
	27.50			  10.32718			  -0.15219			 -0.02106
	27.75			  10.29624			  -0.20372			 0.00516
	28.00			  10.31086			  -0.03888			 0.18399
	28.25			  10.30159			  -0.08687			 0.24804
	28.50			  10.30808			  -0.07811			 0.18543
	28.75			  10.25218			  -0.10488			 0.03256
	29.00			  10.36675			  -0.05572			 0.20425
	29.25			  10.34052			  -0.01464			 0.26244
	29.50			  10.38586			  -0.07424			 0.32882
	29.75			  10.33852			  -0.04545			 0.29476
	30.00			  10.33082			  -0.14007			 0.17480
	30.25			  10.32818			  0.01281			 0.03003
	30.50			  10.33153			  0.11972			 0.04550
	30.75			  10.31114			  0.11349			 0.03270
	31.00			  10.25453			  0.03133			 -0.00551
	31.25			  10.20726			  0.00927			 -0.09119
	31.50			  10.24918			  0.07645			 -0.06360
	31.75			  10.18844			  -0.04174			 -0.02796
	32.00			  10.21817			  -0.03147			 -0.04978
	32.25			  10.24576			  -0.25355			 -0.10770
	32.50			  10.21275			  -0.31804			 -0.08661
	32.75			  10.29995			  -0.27830			 -0.09367
	33.00			  10.23293			  -0.33959			 -0.00218
	33.25			  10.22559			  -0.31080			 -0.10860
	33.50			  10.15892			  -0.20877			 -0.16364
	33.75			  10.25489			  -0.24766			 -0.04304
	34.00			  10.18858			  -0.38421			 0.05288
	34.25			  10.17069			  -0.36905			 0.03745
	34.50			  10.27685			  -0.30423			 0.14283
	34.75			  10.36176			  -0.27393			 0.14614
	35.00			  10.41944			  -0.28689			 -0.04308
	35.25			  10.29923			  -0.21803			 0.00345
	35.50			  10.26893			  -0.23554			 0.06213
	35.75			  10.28833			  -0.19243			 0.02743
	36.00			  10.22430			  -0.17459			 0.04957
	36.25			  10.26351			  -0.19328			 0.07176
	36.50			  10.24783			  -0.11465			 0.00624
	36.75			  10.39335			  -0.07575			 0.03272
	37.00			  10.34379			  -0.09630			 0.07358
	37.25			  10.21703			  -0.04781			 0.10973
	37.50			  10.19015			  0.02880			 0.13535
	37.75			  10.25254			  -0.01228			 -0.02339
	38.00			  10.27970			  -0.12088			 -0.11935
	38.25			  10.34914			  -0.09040			 -0.01019
	38.50			  10.33880			  -0.09680			 0.00696
	38.75			  10.29282			  -0.02811			 -0.02517
	39.00			  10.25738			  -0.14765			 -0.03055
	39.25			  10.24213			  -0.12946			 -0.00854
	39.50			  10.20384			  -0.03922			 -0.02435
	39.75			  10.15500			  -0.20708			 0.05906
	40.00			  10.26002			  -0.18957			 -0.03049
	40.25			  10.30251			  -0.15775			 0.04357
	40.50			  10.41595			  -0.26904			 0.09067
	40.75			  10.42415			  -0.27561			 0.04283
	41.00			  10.42486			  -0.21399			 0.01663
	41.25			  10.37424			  -0.15085			 0.15023
	41.50			  10.24220			  -0.24884			 0.10714
	41.75			  10.19008			  -0.27359			 -0.00170
	42.00			  10.19279			  -0.30760			 -0.09247
	42.25			  10.14310			  -0.38185			 -0.14144
	42.50			  10.13005			  -0.38909			 -0.12122
	42.75			  10.14188			  -0.43337			 -0.16326
	43.00			  10.10638			  -0.26500			 -0.16097
	43.25			  10.01719			  -0.08198			 -0.21652
	43.50			  10.13882			  -0.17038			 -0.09016
	43.75			  10.11579			  -0.19328			 -0.03348
	44.00			  10.08249			  -0.21500			 0.08807
	44.25			  10.25717			  -0.29480			 -0.03183
	44.50			  10.31100			  -0.32949			 -0.10715
	44.75			  10.26580			  -0.40391			 -0.13329
	45.00			  10.35534			  -0.38454			 -0.12007
	45.25			  10.35285			  -0.40963			 0.00028
	45.50			  10.37103			  -0.33269			 -0.02910
	45.75			  10.37987			  -0.40155			 -0.04684
	46.00			  10.47619			  -0.31316			 -0.09394
	46.25			  10.38700			  -0.31922			 -0.01478
	46.50			  10.32326			  -0.36198			 -0.00704
	46.75			  10.34978			  -0.24699			 -0.11147
	47.00			  10.36518			  -0.28420			 -0.13787
	47.25			  10.30287			  -0.26231			 -0.16196
	47.50			  10.29660			  -0.30221			 -0.31702
	47.75			  10.32290			  -0.28117			 -0.28340
	48.00			  10.33267			  -0.26365			 -0.14262
	48.25			  10.28975			  -0.27106			 -0.01988
	48.50			  10.38130			  -0.07575			 -0.01089
	48.75			  10.36504			  0.03369			 0.00831
	49.00			  10.33738			  0.17697			 0.06026
	49.25			  10.28911			  0.12831			 -0.02980
	49.50			  10.29346			  0.06786			 0.03246
	49.75			  10.20840			  0.07898			 -0.01881
	50.00			  10.21610			  0.16788			 0.00145
	50.25			  10.18252			  0.12949			 -0.09747
	50.50			  10.18915			  -0.06245			 -0.07853
	50.75			  10.12912			  0.03099			 -0.05151
	51.00			  10.12064			  -0.00773			 -0.07672
	51.25			  10.14531			  -0.03181			 -0.08463
	51.50			  10.10460			  -0.04814			 -0.09054
	51.75			  10.13076			  -0.05875			 -0.06944
	52.00			  10.15244			  0.07561			 0.08544
	52.25			  10.28733			  0.03150			 0.06566
	52.50			  10.28526			  -0.00841			 0.06795
	52.75			  10.29816			  0.02544			 -0.03867
	53.00			  10.27956			  0.10541			 -0.08561
	53.25			  10.31991			  0.15643			 -0.00782
	53.50			  10.35470			  0.15272			 -0.00252
	53.75			  10.34936			  0.17057			 0.05260
	54.00			  10.37110			  0.18522			 -0.06617
	54.25			  10.29738			  0.18471			 -0.17407
	54.50			  10.30579			  0.23438			 -0.12880
	54.75			  10.25517			  0.18320			 -0.10286
	55.00			  10.38294			  0.03924			 -0.08082
	55.25			  10.25788			  0.06568			 -0.17120
	55.50			  10.26294			  0.12528			 -0.02776
	55.75			  10.25617			  0.05288			 -0.01189
	56.00			  10.28212			  0.08268			 -0.02365
	56.25			  10.42279			  0.04951			 -0.05478
	56.50			  10.35171			  0.15272			 0.00598
	56.75			  10.29923			  0.16990			 -0.04692
	57.00			  10.20662			  0.22125			 -0.03805
	57.25			  10.23507			  0.14599			 -0.03384
	57.50			  10.28341			  0.10912			 0.04793
	57.75			  10.37074			  0.18438			 0.03754
	58.00			  10.21903			  0.31823			 -0.01544
	58.25			  10.13540			  0.18943			 -0.04154
	58.50			  10.14459			  0.28994			 0.01306
	58.75			  10.11465			  0.22428			 -0.00796
	59.00			  10.01412			  0.08891			 0.03447
	59.25			  9.99758			  0.10491			 -0.03995
	59.50			  10.04364			  0.05086			 -0.11644
	59.75			  10.02959			  0.02156			 -0.08017
	60.00			  9.98788			  0.04345			 0.04091
	60.25			  9.91737			  0.05692			 0.17284
	60.50			  9.84536			  0.01853			 0.09135
	60.75			  9.89235			  -0.02558			 0.02044
	61.00			  9.94995			  -0.06582			 0.10411
	61.25			  9.92586			  -0.00386			 0.14544
	61.50			  10.00835			  0.06719			 -0.00064
	61.75			  9.94382			  0.04513			 -0.01201
	62.00			  9.94382			  0.08807			 0.05358
	62.25			  10.10388			  0.03688			 0.15563
	62.50			  10.12677			  0.07746			 0.05236
	62.75			  10.06873			  0.09245			 -0.10619
	63.00			  10.11893			  -0.01144			 0.02357
	63.25			  10.15044			  -0.01716			 -0.05047
	63.50			  10.21004			  -0.10168			 -0.10619
	63.75			  10.13867			  -0.03383			 0.00227
	64.00			  10.17240			  0.10120			 -0.06282
	64.25			  10.18887			  0.11737			 -0.05885
	64.50			  10.11800			  0.17444			 0.02618
	64.75			  10.13425			  0.09767			 0.02520
	65.00			  10.17439			  0.13673			 0.11240
	65.25			  10.14260			  0.16165			 0.12606
	65.50			  10.06795			  0.11299			 -0.03598
	65.75			  10.05647			  0.16501			 -0.05855
	66.00			  10.06909			  0.27715			 -0.05771
	66.25			  10.12092			  0.25341			 -0.08748
	66.50			  10.05055			  0.22260			 -0.04824
	66.75			  10.03330			  0.22462			 -0.02908
	67.00			  10.09861			  0.20037			 -0.02329
	67.25			  9.97434			  0.16350			 0.06572
	67.50			  10.06937			  0.25189			 -0.02838
	67.75			  10.01840			  0.19700			 -0.04134
	68.00			  10.00735			  0.26402			 -0.03462
	68.25			  10.03544			  0.35645			 -0.16769
	68.50			  9.85513			  0.26065			 -0.11829
	68.75			  9.85078			  0.29752			 -0.10737
	69.00			  9.80344			  0.15222			 -0.07650
	69.25			  9.81570			  0.04446			 -0.05636
	69.50			  9.86483			  0.00759			 -0.04086
	69.75			  9.82832			  0.08824			 -0.06052
	70.00			  9.75417			  0.18623			 -0.04934
	70.25			  9.78219			  0.22512			 -0.04736
	70.50			  9.78169			  0.20744			 -0.17245
	70.75			  9.77492			  0.15340			 -0.02499
	71.00			  9.72772			  0.10188			 -0.16826
	71.25			  9.77613			  0.13690			 -0.21347
	71.50			  9.84714			  0.07578			 -0.21323
	71.75			  9.83581			  -0.00655			 -0.14944
	72.00			  9.84935			  0.05120			 -0.12300
	72.25			  9.91402			  0.01399			 -0.02052
	72.50			  9.91751			  0.06669			 -0.11012
	72.75			  9.96357			  0.00304			 -0.02997
	73.00			  9.94232			  -0.05403			 -0.02230
	73.25			  9.91252			  -0.05959			 0.03419
	73.50			  9.89491			  -0.03299			 0.06540
	73.75			  9.96885			  -0.08485			 0.12417
	74.00			  10.01448			  -0.02305			 0.16674
	74.25			  10.03893			  -0.12273			 0.18953
	74.50			  10.09176			  -0.19631			 0.18020
	74.75			  10.14744			  -0.32056			 0.15807
	75.00			  10.09240			  -0.32713			 0.17191
	75.25			  10.10438			  -0.23486			 0.10594
	75.50			  10.04221			  -0.10993			 0.08345
	75.75			  9.96350			  -0.16129			 0.11388
	76.00			  10.02902			  -0.11381			 0.33554
	76.25			  10.02047			  -0.16516			 0.28639
	76.50			  9.96771			  -0.19142			 0.23263
	76.75			  9.99622			  -0.29295			 0.16592
	77.00			  10.10816			  -0.27510			 0.13087
	77.25			  10.14538			  -0.28622			 0.09928
	77.50			  10.10303			  -0.18705			 0.06532
	77.75			  10.18815			  -0.14277			 0.09069
	78.00			  10.15365			  -0.18519			 0.17173
	78.25			  10.18637			  -0.24631			 0.33773
	78.50			  10.10502			  -0.13603			 0.35155
	78.75			  10.11586			  -0.10875			 0.36073
	79.00			  10.18209			  -0.10808			 0.40148
	79.25			  10.14830			  -0.08350			 0.40266
	79.50			  10.01932			  -0.02609			 0.33739
	79.75			  9.95666			  -0.01885			 0.25033
	80.00			  10.00157			  -0.17812			 0.13121
	80.25			  9.93997			  -0.23554			 0.11143
	80.50			  9.94261			  -0.21331			 0.17671
	80.75			  9.93612			  -0.21432			 0.15081
	81.00			  9.90575			  -0.22341			 0.13595
	81.25			  9.80622			  -0.17223			 0.20343
	81.50			  9.74940			  -0.08670			 0.25269
	81.75			  9.83410			  -0.09798			 0.18810
	82.00			  9.83338			  -0.20489			 0.05079
	82.25			  9.76202			  -0.12408			 0.07980
	82.50			  9.89848			  -0.07693			 -0.01941
	82.75			  9.87039			  -0.21449			 -0.02565
	83.00			  9.93790			  -0.21079			 0.00987
	83.25			  9.93548			  -0.07070			 -0.01697
	83.50			  9.93584			  -0.09124			 0.05410
	83.75			  10.01148			  -0.08081			 0.21492
	84.00			  9.91730			  -0.05589			 0.10257
	84.25			  10.04285			  -0.11566			 0.05840
	84.50			  9.98018			  -0.27359			 0.14253
	84.75			  9.99352			  -0.25524			 0.15135
	85.00			  9.84237			  -0.25810			 0.10975
	85.25			  9.88985			  -0.15455			 0.05573
	85.50			  9.93962			  -0.10354			 -0.06860
	85.75			  9.97990			  -0.18553			 -0.10136
	86.00			  9.96806			  -0.12206			 -0.12974
	86.25			  9.98182			  -0.05555			 -0.06732
	86.50			  10.05825			  0.01584			 -0.05476
	86.75			  10.10374			  -0.00807			 -0.17678
	87.00			  10.00777			  0.06601			 -0.22065
	87.25			  9.91053			  0.05372			 -0.00954
	87.50			  9.92521			  0.02796			 -0.09111
	87.75			  9.96478			  0.02830			 -0.14625
	88.00			  9.91623			  0.01382			 -0.12420
	88.25			  9.90546			  0.12393			 -0.01669
	88.50			  9.91901			  0.00978			 0.03354
	88.75			  9.99508			  -0.06818			 0.01417
	89.00			  10.01248			  -0.07710			 0.20826
	89.25			  10.00827			  -0.13165			 0.23719
	89.50			  9.97733			  -0.03029			 0.19043
	89.75			  10.05690			  0.07443			 0.09687
	90.00			  9.92364			  0.09093			 0.14010
	90.25			  9.83859			  0.19229			 0.11095
	90.50			  9.75082			  0.26082			 0.10120
	90.75			  9.84037			  0.29062			 0.09236
	91.00			  10.00635			  0.42094			 0.16174
	91.25			  9.97020			  0.27614			 0.08431
	91.50			  10.00913			  0.31975			 0.03537
	91.75			  10.00813			  0.21906			 0.08522
	92.00			  10.02945			  0.10305			 0.11298
	92.25			  10.00699			  0.10726			 0.16822
	92.50			  10.01605			  0.06180			 0.14319
	92.75			  10.12869			  0.03217			 0.16034
	93.00			  10.16021			  0.04446			 0.16973
	93.25			  10.19628			  0.13218			 0.05988
	93.50			  10.03137			  0.06938			 0.05296
	93.75			  9.97605			  0.12343			 0.04997
	94.00			  9.97377			  0.20711			 -0.00068
	94.25			  10.04955			  0.22883			 0.03057
	94.50			  9.92521			  0.09464			 -0.05339
	94.75			  10.00578			  -0.00959			 0.02490
	95.00			  10.13112			  -0.08064			 0.01033
	95.25			  10.25617			  -0.17509			 0.13186
	95.50			  10.24127			  -0.13603			 0.08379
	95.75			  10.26323			  -0.17610			 0.01306
	96.00			  10.17504			  -0.18368			 0.04484
	96.25			  10.13547			  -0.23032			 -0.00629
	96.50			  10.13390			  -0.24278			 -0.01167
	96.75			  10.07736			  -0.09074			 -0.12011
	97.00			  10.09419			  -0.00117			 -0.09560
	97.25			  10.07052			  -0.03602			 -0.13117
	97.50			  10.11679			  0.00473			 -0.09859
	97.75			  10.17703			  0.06298			 -0.15389
	98.00			  10.02874			  0.05810			 -0.09014
	98.25			  10.07194			  0.04867			 -0.06350
	98.50			  10.04086			  0.14043			 -0.02423
	98.75			  10.12499			  0.15356			 0.02969
	99.00			  10.13190			  0.09379			 -0.03586
	99.25			  10.05832			  0.05136			 -0.11251
	99.50			  10.06324			  0.10524			 -0.17963
	99.75			  10.09761			  0.07830			 -0.21917
	100.00			  10.23614			  0.14952			 -0.09959
	100.25			  10.26929			  0.18000			 -0.04812
	100.50			  10.28526			  0.27277			 -0.00315
	100.75			  10.39477			  0.08201			 0.07775
	101.00			  10.34244			  0.19734			 0.08664
	101.25			  10.37224			  0.11063			 -0.03327
	101.50			  10.40967			  0.14195			 0.05743
	101.75			  10.34415			  0.23118			 0.04608
	102.00			  10.25767			  0.25240			 0.06353
	102.25			  10.27121			  0.11602			 0.07444
	102.50			  10.27464			  0.19667			 -0.10856
	102.75			  10.35221			  0.14447			 -0.05269
	103.00			  10.26202			  0.10659			 -0.09554
	103.25			  10.29118			  0.15020			 -0.09859
	103.50			  10.35905			  0.17815			 -0.04734
	103.75			  10.36725			  0.17512			 -0.02629
	104.00			  10.26665			  0.09413			 -0.15524
	104.25			  10.23072			  -0.01531			 -0.11504
	104.50			  10.28918			  -0.06127			 -0.05187
	104.75			  10.36012			  -0.03046			 -0.06730
	105.00			  10.33075			  -0.01834			 -0.05017
	105.25			  10.32376			  -0.03737			 -0.01422
	105.50			  10.27763			  -0.09478			 -0.16769
	105.75			  10.19642			  -0.02592			 -0.28350
	106.00			  10.16755			  0.06046			 -0.21688
	106.25			  10.13447			  0.08773			 -0.12437
	106.50			  10.20890			  0.06382			 -0.12733
	106.75			  10.20847			  0.07780			 -0.08385
	107.00			  10.28562			  0.13858			 -0.00806
	107.25			  10.25952			  0.15845			 0.06247
	107.50			  10.24227			  0.14178			 0.00051
	107.75			  10.31963			  0.22984			 0.01459
	108.00			  10.24006			  0.25644			 -0.11446
	108.25			  10.18994			  0.30964			 -0.06314
	108.50			  10.26487			  0.31436			 -0.03213
	108.75			  10.25688			  0.16148			 -0.08822
	109.00			  10.32112			  0.14279			 -0.07317
	109.25			  10.36504			  -0.02693			 -0.03831
	109.50			  10.39249			  -0.09444			 -0.07696
	109.75			  10.35406			  -0.13266			 -0.10475
	110.00			  10.31285			  0.02897			 -0.08108
	110.25			  10.25653			  0.01702			 -0.00766
	110.50			  10.19079			  0.01230			 0.06131
	110.75			  10.14053			  0.08740			 0.07250
	111.00			  10.25360			  0.10390			 0.03561
	111.25			  10.24869			  0.20963			 0.06293
	111.50			  10.23756			  0.15424			 -0.03317
	111.75			  10.23920			  0.19498			 -0.02954
	112.00			  10.33424			  0.13302			 -0.10013
	112.25			  10.33724			  0.13942			 -0.14737
	112.50			  10.41088			  0.08201			 -0.06964
	112.75			  10.39220			  0.06955			 -0.10920
	113.00			  10.33545			  0.06382			 -0.12314
	113.25			  10.30308			  0.11013			 -0.25690
	113.50			  10.22402			  -0.00285			 -0.20452
	113.75			  10.26458			  0.01988			 -0.18424
	114.00			  10.29923			  0.11080			 0.00821
	114.25			  10.38807			  0.11636			 -0.09201
	114.50			  10.39178			  0.13235			 -0.05951
	114.75			  10.37196			  0.09480			 0.01974
	115.00			  10.31856			  0.09194			 -0.07606
	115.25			  10.20270			  0.11097			 -0.06088
	115.50			  10.16341			  0.05642			 0.00492
	115.75			  10.25788			  0.07679			 -0.05219
	116.00			  10.31606			  0.09581			 -0.01883
	116.25			  10.30102			  0.16131			 -0.03763
	116.50			  10.24462			  0.22613			 -0.07702
	116.75			  10.25311			  0.05844			 -0.10888
	117.00			  10.22658			  -0.05084			 -0.11803
	117.25			  10.28804			  -0.06599			 -0.05977
	117.50			  10.29339			  -0.18233			 -0.04972
	117.75			  10.34622			  -0.09293			 -0.07087
	118.00			  10.26081			  -0.05016			 -0.13488
	118.25			  10.15058			  0.09194			 -0.09028
	118.50			  10.10745			  0.04732			 -0.07494
	118.75			  10.19635			  -0.04006			 -0.05233
	119.00			  10.26836			  0.00170			 -0.04748
	119.25			  10.29296			  0.06399			 0.09703
	119.50			  10.31121			  0.05372			 0.07306
	119.75			  10.23892			  0.16165			 0.08263
	120.00			  10.26851			  0.17882			 -0.01448
	120.25			  10.30009			  0.18370			 0.00167
	120.50			  10.31257			  0.04631			 -0.00666
	120.75			  10.39149			  -0.07996			 0.07615
	121.00			  10.41217			  -0.06969			 -0.01348
	121.25			  10.37602			  -0.19765			 -0.04118
	121.50			  10.41866			  -0.24143			 -0.00521
	121.75			  10.38251			  -0.23604			 -0.04982
	122.00			  10.28854			  -0.23217			 -0.00828
	122.25			  10.25574			  -0.15927			 -0.00148
	122.50			  10.31834			  -0.25204			 -0.00850
	122.75			  10.36468			  -0.26248			 0.07398
	123.00			  10.38073			  -0.33471			 0.09085
	123.25			  10.46621			  -0.29868			 -0.02096
	123.50			  10.40939			  -0.27005			 -0.07586
	123.75			  10.45566			  -0.27106			 -0.10132
	124.00			  10.42429			  -0.40475			 -0.00611
	124.25			  10.34750			  -0.33622			 0.01930
	124.50			  10.39655			  -0.37865			 0.02071
	124.75			  10.31827			  -0.31837			 0.10157
	125.00			  10.14752			  -0.17863			 0.09591
	125.25			  10.08684			  -0.22173			 0.01754
	125.50			  10.07173			  -0.25153			 -0.04302
	125.75			  10.05790			  -0.27696			 -0.03121
	126.00			  9.99088			  -0.19715			 -0.09602
	126.25			  9.89420			  -0.19126			 -0.15857
	126.50			  9.86946			  -0.26163			 -0.08405
	126.75			  9.84935			  -0.18048			 -0.10208
	127.00			  9.90803			  -0.13620			 -0.07606
	127.25			  9.91309			  -0.21483			 -0.03721
	127.50			  9.82618			  -0.33117			 -0.01085
	127.75			  9.85877			  -0.48759			 -0.00365
	128.00			  9.85812			  -0.45105			 -0.01125
	128.25			  9.97362			  -0.38050			 0.13173
	128.50			  10.03080			  -0.38370			 0.19442
	128.75			  10.08278			  -0.36889			 0.06766
	129.00			  10.14374			  -0.35239			 -0.00706
	129.25			  10.14908			  -0.35390			 -0.01021
	129.50			  10.14980			  -0.38993			 0.00943
	129.75			  10.16391			  -0.36636			 -0.01057
	130.00			  10.23300			  -0.24261			 -0.04308
	130.25			  10.18844			  -0.26955			 0.04389
	130.50			  10.13675			  -0.28352			 -0.05400
	130.75			  10.12962			  -0.30002			 -0.09460
	131.00			  10.17040			  -0.34801			 -0.15790
	131.25			  10.07943			  -0.41232			 -0.15676
	131.50			  10.18509			  -0.41923			 -0.04024
	131.75			  10.15222			  -0.34834			 -0.01512
	132.00			  10.02710			  -0.37124			 -0.05825
	132.25			  10.04970			  -0.24244			 -0.02908
	132.50			  10.14388			  -0.19159			 -0.12100
	132.75			  10.19942			  -0.25844			 -0.14101
	133.00			  10.18751			  -0.33235			 -0.09125
	133.25			  10.10966			  -0.25625			 -0.05444
	133.50			  10.16869			  -0.30373			 -0.05689
	133.75			  10.22637			  -0.31080			 0.02408
	134.00			  10.12591			  -0.34717			 -0.02682
	134.25			  10.12976			  -0.31821			 -0.10733
	134.50			  10.17482			  -0.14664			 -0.16529
	134.75			  10.23286			  -0.09091			 -0.16142
	135.00			  10.14466			  -0.26904			 -0.05630
	135.25			  10.13126			  -0.35255			 -0.05693
	135.50			  10.09561			  -0.15539			 0.10564
	135.75			  10.11158			  -0.09865			 0.17380
	136.00			  10.21931			  -0.01295			 0.14698
	136.25			  10.21953			  -0.06245			 0.09659
	136.50			  10.20291			  -0.20607			 0.10439
	136.75			  10.11600			  -0.25372			 0.12814
	137.00			  10.05697			  -0.22560			 0.07938
	137.25			  9.97462			  -0.26685			 0.06484
	137.50			  10.01376			  -0.18721			 -0.00160
	137.75			  10.04791			  -0.00437			 -0.02547
	138.00			  10.07244			  -0.04999			 -0.02732
	138.25			  10.05668			  -0.08232			 -0.02838
	138.50			  10.10153			  -0.17762			 0.06008
	138.75			  10.15137			  -0.05117			 -0.08417
	139.00			  10.10602			  -0.02103			 -0.04569
	139.25			  10.10773			  -0.10320			 0.09988
	139.50			  10.11251			  -0.20708			 0.12987
	139.75			  10.15115			  -0.23840			 0.00931
	140.00			  10.11821			  -0.28942			 0.03090
	140.25			  9.92400			  -0.34262			 -0.01424
	140.50			  9.99202			  -0.32898			 -0.01859
	140.75			  9.98418			  -0.29447			 -0.09905
	141.00			  10.03394			  -0.23571			 0.06582
	141.25			  9.97676			  -0.13401			 -0.01651
	141.50			  10.00150			  -0.03417			 -0.01640
	141.75			  10.00549			  0.01836			 0.07362
	142.00			  10.05547			  -0.12105			 0.01948
	142.25			  10.11308			  -0.15876			 -0.03781
	142.50			  10.15151			  -0.04781			 -0.06431
	142.75			  10.12912			  0.11854			 -0.11993
	143.00			  10.09283			  0.11838			 -0.13064
	143.25			  10.07757			  0.15390			 -0.07203
	143.50			  10.10452			  0.11703			 -0.01422
	143.75			  10.12285			  0.01752			 -0.01707
	144.00			  10.06331			  -0.03720			 -0.03325
	144.25			  10.08535			  0.06416			 -0.06015
	144.50			  10.09946			  0.06786			 0.09874
	144.75			  10.00065			  -0.04393			 0.10865
	145.00			  10.07244			  -0.17156			 0.12459
	145.25			  10.15707			  -0.22005			 0.10548
	145.50			  10.24776			  -0.25759			 0.11631
	145.75			  10.23300			  -0.24025			 0.07236
	146.00			  10.14616			  -0.18267			 0.16016
	146.25			  10.19821			  -0.17947			 0.14319
	146.50			  10.14424			  -0.24109			 0.06203
	146.75			  10.06809			  -0.20927			 0.04018
	147.00			  10.14310			  -0.31720			 0.05334
	147.25			  10.18644			  -0.26736			 0.03198
	147.50			  10.11080			  -0.21533			 -0.10896
	147.75			  10.16120			  -0.22240			 -0.10766
	148.00			  10.19357			  -0.22308			 -0.04948
	148.25			  10.20291			  -0.26046			 -0.13237
	148.50			  10.19892			  -0.23133			 -0.23756
	148.75			  10.22152			  -0.21937			 -0.19365
	149.00			  10.21568			  -0.22880			 -0.25048
	149.25			  10.27428			  -0.32848			 -0.21128
	149.50			  10.32968			  -0.31316			 -0.20659
	149.75			  10.23050			  -0.19749			 -0.16322
	150.00			  10.20412			  -0.11768			 -0.11103
	150.25			  10.18659			  -0.15489			 0.02377
	150.50			  10.17468			  -0.22661			 -0.06878
	150.75			  10.07358			  -0.25692			 -0.11448
	151.00			  10.15885			  -0.28925			 -0.02740
	151.25			  10.10866			  -0.23419			 0.08082
	151.50			  10.05554			  -0.19395			 0.12217
	151.75			  10.04521			  -0.16011			 0.05647
	152.00			  10.08235			  -0.10993			 0.13420
	152.25			  10.10324			  -0.14192			 0.18134
	152.50			  10.12406			  -0.17274			 0.17725
	152.75			  10.11786			  -0.25355			 0.15623
	153.00			  10.19143			  -0.13485			 0.07701
	153.25			  10.17461			  -0.02878			 -0.01554
	153.50			  10.11251			  -0.02827			 0.12487
	153.75			  10.06852			  -0.18132			 0.04056
	154.00			  10.04278			  -0.15388			 -0.03871
	154.25			  10.02660			  -0.07912			 -0.01083
	154.50			  10.13425			  -0.09781			 -0.04768
	154.75			  10.04948			  -0.02019			 -0.02084
	155.00			  10.11009			  -0.00167			 0.03057
	155.25			  10.03943			  -0.11549			 -0.00910
	155.50			  10.04706			  -0.09141			 0.06857
	155.75			  10.06916			  -0.13418			 0.07081
	156.00			  10.16983			  -0.10825			 0.06034
	156.25			  10.22430			  -0.29278			 -0.02527
	156.50			  10.13974			  -0.13502			 -0.05967
	156.75			  10.11137			  -0.09966			 -0.00303
	157.00			  10.13162			  -0.06010			 0.00388
	157.25			  10.12648			  -0.13266			 -0.05727
	157.50			  10.07743			  -0.09545			 0.06855
	157.75			  10.06952			  -0.14512			 0.17759
	158.00			  10.02375			  -0.02289			 0.17512
	158.25			  10.08691			  0.07393			 0.13751
	158.50			  10.06374			  -0.01901			 0.13354
	158.75			  10.04727			  -0.00655			 0.13378
	159.00			  10.10303			  -0.01194			 0.12678
	159.25			  10.19949			  0.03621			 0.12447
	159.50			  10.22765			  -0.04073			 0.06610
	159.75			  10.16021			  0.02998			 0.03136
	160.00			  10.23607			  0.05103			 0.02735
	160.25			  10.18388			  0.10861			 0.05463
	160.50			  10.08043			  0.06467			 0.02686
	160.75			  10.05198			  0.09312			 -0.00489
	161.00			  9.98460			  0.09868			 -0.01464
	161.25			  10.12164			  0.10305			 -0.00631
	161.50			  10.10581			  0.09160			 0.01828
	161.75			  10.04756			  -0.04747			 0.08861
	162.00			  10.00906			  -0.09377			 -0.04385
	162.25			  10.01768			  -0.00942			 0.00889
	162.50			  9.92799			  -0.10269			 0.12219
	162.75			  9.92201			  -0.08384			 0.14772
	163.00			  9.89990			  -0.04444			 -0.01713
	163.25			  9.90468			  0.09043			 -0.00862
	163.50			  10.02424			  0.06180			 0.01276
	163.75			  9.97512			  0.07729			 0.03571
	164.00			  10.04100			  0.01820			 -0.11171
	164.25			  10.06595			  0.06113			 0.07611
	164.50			  10.03237			  0.00691			 0.03282
	164.75			  10.07330			  0.16283			 -0.06473