--------------TurbSim v2.00.* User Time Series Input File-----------------------
     Time series input from low-res turbsim run
--------------------------------------------------------------------------------
          3 nComp - Number of velocity components in the file
          1 nPoints - Number of time series points contained in this file (-)
          1 RefPtID - Index of the reference point (1-nPoints)
     Pointyi Pointzi ! nPoints listed in order of increasing height
       (m)     (m)
       1.55883   94.00000
--------Time Series-------------------------------------------------------------
Elapsed Time         Point01u             Point01v           Point01w
         (s)            (m/s)                (m/s)              (m/s)
	0.00			  10.37916			  0.33889			 0.14486
	0.25			  10.76084			  0.24560			 -0.05841
	0.50			  10.51066			  0.16601			 -0.05406
	0.75			  10.54241			  0.23271			 0.14186
	1.00			  10.82906			  0.11793			 0.32765
	1.25			  10.77975			  -0.05884			 0.20808
	1.50			  10.98534			  0.28815			 0.00526
	1.75			  10.88435			  0.39352			 0.00606
	2.00			  11.18248			  0.25828			 -0.13793
	2.25			  11.36195			  0.39454			 -0.22883
	2.50			  11.10513			  0.50318			 -0.05599
	2.75			  11.04433			  0.90317			 0.18756
	3.00			  11.08171			  0.57377			 0.28442
	3.25			  11.15749			  0.54451			 0.48706
	3.50			  11.33493			  0.42380			 0.46918
	3.75			  11.31376			  0.36426			 0.54494
	4.00			  11.19138			  0.25358			 0.42864
	4.25			  11.25521			  0.27158			 0.33101
	4.50			  11.25949			  0.63187			 0.17022
	4.75			  11.15591			  0.58236			 0.42573
	5.00			  11.19025			  0.29490			 0.46367
	5.25			  11.10074			  0.48109			 0.59884
	5.50			  10.86723			  0.31986			 0.77155
	5.75			  11.09804			  0.22514			 0.72563
	6.00			  11.07169			  -0.05189			 0.48339
	6.25			  10.98410			  0.21041			 0.36475
	6.50			  11.27593			  0.42359			 0.33693
	6.75			  11.62293			  0.06555			 0.32568
	7.00			  11.61775			  -0.01076			 0.54248
	7.25			  11.42241			  0.11875			 0.88911
	7.50			  11.10851			  0.15373			 0.54432
	7.75			  11.22729			  0.26115			 0.56277
	8.00			  11.52712			  0.34667			 0.35816
	8.25			  11.39437			  0.44856			 0.20870
	8.50			  11.43367			  0.61326			 0.33930
	8.75			  11.40169			  0.72558			 0.18621
	9.00			  11.38019			  0.64456			 0.38119
	9.25			  11.40012			  0.84997			 0.20516
	9.50			  11.34011			  1.10858			 0.32223
	9.75			  11.41115			  1.10388			 0.52761
	10.00			  11.37073			  1.11145			 0.36408
	10.25			  11.31928			  1.19083			 0.53061
	10.50			  11.26354			  1.08055			 0.46959
	10.75			  11.32524			  0.91831			 0.47227
	11.00			  10.97228			  0.82624			 0.19898
	11.25			  11.07034			  0.71883			 0.36072
	11.50			  11.03994			  0.61428			 0.73105
	11.75			  11.05469			  0.53530			 0.53966
	12.00			  10.93839			  0.40723			 0.30243
	12.25			  10.92172			  0.37163			 0.34078
	12.50			  10.82906			  0.26360			 0.44230
	12.75			  10.68180			  0.48702			 0.51770
	13.00			  10.65410			  0.72701			 0.36990
	13.25			  10.87894			  0.63187			 0.27340
	13.50			  10.56651			  0.43382			 0.13568
	13.75			  10.79686			  0.41848			 -0.01329
	14.00			  10.73156			  0.39127			 0.02318
	14.25			  10.88176			  0.32437			 -0.16082
	14.50			  10.65331			  0.09215			 0.03411
	14.75			  10.71197			  0.22555			 0.24087
	15.00			  10.74124			  0.06698			 0.26283
	15.25			  10.71006			  -0.03306			 -0.06741
	15.50			  10.68326			  0.22145			 -0.15625
	15.75			  10.52226			  0.30759			 0.07596
	16.00			  10.35236			  0.27772			 0.17380
	16.25			  10.16907			  0.19322			 0.04159
	16.50			  10.30158			  0.27158			 0.08460
	16.75			  10.18078			  0.51218			 -0.28945
	17.00			  10.27805			  0.28427			 -0.39859
	17.25			  10.53960			  0.32478			 -0.39886
	17.50			  10.55986			  0.02197			 -0.05393
	17.75			  10.29978			  -0.05577			 -0.15119
	18.00			  10.31318			  0.07333			 -0.09501
	18.25			  10.25002			  0.10913			 0.13084
	18.50			  10.33480			  0.02607			 -0.09967
	18.75			  10.07810			  0.24437			 0.02865
	19.00			  10.15938			  0.41071			 -0.06199
	19.25			  10.56302			  0.42646			 -0.07386
	19.50			  10.57315			  0.30309			 0.07690
	19.75			  10.34572			  0.35792			 -0.07763
	20.00			  10.16456			  0.62635			 -0.18519
	20.25			  10.13236			  0.31639			 -0.08278
	20.50			  10.32951			  0.16724			 -0.06831
	20.75			  10.38952			  0.52282			 -0.00540
	21.00			  10.33142			  0.37531			 -0.01669
	21.25			  10.12493			  0.37020			 0.04979
	21.50			  10.15950			  0.40191			 -0.01387
	21.75			  9.95920			  0.33132			 -0.09407
	22.00			  9.96438			  0.07292			 -0.30356
	22.25			  10.14441			  0.06371			 -0.18856
	22.50			  10.20971			  0.28181			 -0.29380
	22.75			  10.00266			  0.32396			 -0.44290
	23.00			  10.05839			  0.08519			 -0.42878
	23.25			  10.14227			  -0.02181			 -0.28233
	23.50			  10.21658			  -0.10795			 -0.35190
	23.75			  10.14576			  -0.29617			 -0.33206
	24.00			  10.06076			  -0.30027			 -0.33000
	24.25			  10.36531			  -0.03286			 -0.14985
	24.50			  10.41856			  -0.26978			 -0.23528
	24.75			  10.35405			  -0.09301			 -0.34554
	25.00			  10.18686			  -0.27203			 -0.11333
	25.25			  10.12876			  -0.34855			 -0.04465
	25.50			  9.94941			  -0.51386			 -0.14111
	25.75			  9.87082			  -0.47847			 -0.09263
	26.00			  9.66489			  -0.25382			 -0.18981
	26.25			  9.66230			  -0.46824			 -0.14044
	26.50			  9.67638			  -0.47867			 0.02443
	26.75			  9.81903			  -0.79089			 0.25749
	27.00			  9.83490			  -0.44328			 0.18850
	27.25			  9.47619			  -0.44491			 0.02985
	27.50			  9.44321			  -0.55089			 -0.12064
	27.75			  9.34435			  -0.63948			 -0.10267
	28.00			  9.31677			  -0.68204			 -0.20952
	28.25			  9.57786			  -0.71764			 -0.11468
	28.50			  9.60027			  -0.56031			 -0.12108
	28.75			  9.54600			  -0.33075			 -0.02440
	29.00			  9.69811			  -0.37740			 -0.04841
	29.25			  9.32138			  -0.36737			 -0.12583
	29.50			  9.43015			  -0.58118			 0.05615
	29.75			  9.17446			  -0.44123			 -0.24989
	30.00			  9.08022			  -0.57504			 -0.20952
	30.25			  9.33568			  -0.65585			 -0.06365
	30.50			  9.33174			  -0.80152			 -0.08081
	30.75			  9.26712			  -0.87150			 -0.00859
	31.00			  9.29200			  -1.19783			 -0.14098
	31.25			  9.50355			  -1.08509			 -0.05970
	31.50			  9.39288			  -1.07937			 -0.02798
	31.75			  9.46246			  -0.88254			 -0.02333
	32.00			  9.42148			  -0.50220			 -0.06750
	32.25			  9.45976			  -0.88316			 -0.11687
	32.50			  9.58135			  -0.90096			 0.05270
	32.75			  9.37779			  -0.74956			 0.33903
	33.00			  9.26892			  -0.55601			 0.28128
	33.25			  9.30787			  -0.59386			 0.33110
	33.50			  9.13291			  -0.68163			 0.57371
	33.75			  8.98452			  -0.60941			 0.52778
	34.00			  9.36676			  -0.95231			 0.53876
	34.25			  9.36766			  -1.10146			 0.28944
	34.50			  9.23537			  -1.13297			 0.29351
	34.75			  9.13753			  -1.04213			 0.41045
	35.00			  9.38691			  -0.97339			 0.49373
	35.25			  9.40729			  -0.99016			 0.70896
	35.50			  9.81126			  -0.97564			 0.46054
	35.75			  10.01583			  -1.08612			 0.35539
	36.00			  9.68539			  -1.35884			 0.48204
	36.25			  9.69586			  -1.59045			 0.38711
	36.50			  9.83974			  -1.06709			 0.51502
	36.75			  9.62053			  -0.93963			 0.42098
	37.00			  9.80563			  -1.14034			 0.20284
	37.25			  9.86159			  -1.02310			 -0.04196
	37.50			  9.99692			  -0.93738			 -0.15455
	37.75			  10.03835			  -0.99139			 -0.18022
	38.00			  9.93871			  -0.95518			 -0.01253
	38.25			  9.82466			  -0.96520			 -0.02512
	38.50			  9.59554			  -1.07241			 0.07210
	38.75			  9.58248			  -0.96786			 0.01175
	39.00			  9.54521			  -0.68716			 0.03604
	39.25			  9.30562			  -0.72992			 0.06883
	39.50			  9.28187			  -0.87293			 0.15458
	39.75			  9.43713			  -0.74342			 0.30476
	40.00			  9.45750			  -0.79191			 0.31954
	40.25			  9.37002			  -0.75406			 0.17604
	40.50			  9.40312			  -0.96131			 0.43397
	40.75			  9.58090			  -1.18207			 0.32071
	41.00			  9.57888			  -1.04745			 0.52648
	41.25			  9.49995			  -0.93103			 0.42250
	41.50			  9.38871			  -0.98709			 0.60018
	41.75			  9.17964			  -0.62209			 0.60941
	42.00			  9.27871			  -0.74853			 0.42183
	42.25			  9.43679			  -0.72460			 0.26798
	42.50			  9.45052			  -0.85922			 0.39571
	42.75			  9.68426			  -0.47335			 0.17246
	43.00			  9.68764			  -0.72521			 0.40875
	43.25			  9.66579			  -0.50936			 0.19871
	43.50			  9.41314			  -0.48236			 0.34056
	43.75			  9.14575			  -0.55417			 0.45879
	44.00			  9.27376			  -0.78966			 0.63831
	44.25			  9.27973			  -0.82423			 0.31560
	44.50			  9.35820			  -0.91548			 0.30463
	44.75			  9.52405			  -1.06893			 0.40090
	45.00			  9.64125			  -0.90341			 0.02179
	45.25			  9.49139			  -0.71355			 0.03707
	45.50			  9.35077			  -0.76388			 0.08599
	45.75			  9.22264			  -0.74997			 0.17380
	46.00			  9.54679			  -0.63805			 0.09253
	46.25			  9.61659			  -0.77472			 -0.04098
	46.50			  9.59509			  -0.65647			 -0.06696
	46.75			  9.39108			  -0.78025			 0.11063
	47.00			  9.49747			  -0.56031			 0.14509
	47.25			  9.38218			  -0.42937			 0.02448
	47.50			  9.48363			  -0.55274			 0.16350
	47.75			  9.43904			  -0.51693			 0.41941
	48.00			  9.25608			  -0.72992			 0.32640
	48.25			  9.33062			  -0.68368			 0.43903
	48.50			  9.29898			  -0.63396			 0.41690
	48.75			  9.28063			  -0.51755			 0.34840
	49.00			  9.60500			  -0.61759			 0.22326
	49.25			  9.77039			  -0.59959			 0.19925
	49.50			  9.89852			  -0.45617			 -0.00787
	49.75			  9.98634			  -0.36062			 -0.02785
	50.00			  9.75846			  -0.28267			 0.16319
	50.25			  9.58293			  -0.38047			 0.38272
	50.50			  9.66816			  0.06166			 0.36712
	50.75			  9.78930			  0.21470			 0.10266
	51.00			  9.58068			  -0.13045			 0.03644
	51.25			  9.66320			  -0.07869			 0.11749
	51.50			  9.77399			  -0.38415			 0.14603
	51.75			  9.66872			  -0.21188			 -0.04044
	52.00			  9.61400			  0.10790			 0.17819
	52.25			  9.72659			  -0.23582			 0.29705
	52.50			  9.57730			  -0.10529			 0.24697
	52.75			  9.66320			  -0.08912			 0.17327
	53.00			  9.73391			  -0.13536			 0.21345
	53.25			  9.70374			  0.04448			 0.42931
	53.50			  9.86902			  -0.13925			 0.03429
	53.75			  9.75868			  -0.09219			 0.02004
	54.00			  9.43848			  -0.07378			 0.25933
	54.25			  9.71083			  -0.13557			 0.34096
	54.50			  9.55230			  -0.22252			 0.41309
	54.75			  9.77005			  -0.54824			 0.44508
	55.00			  9.82590			  -0.46353			 0.50476
	55.25			  9.79234			  -0.45494			 0.52689
	55.50			  9.98397			  -0.46394			 0.58303
	55.75			  9.96787			  -0.56276			 0.57662
	56.00			  9.88838			  -0.46415			 0.45328
	56.25			  9.87960			  -0.59202			 0.27344
	56.50			  9.88320			  -0.76756			 0.27380
	56.75			  9.62267			  -0.80725			 0.35453
	57.00			  9.74044			  -0.74158			 0.32089
	57.25			  9.51887			  -0.58015			 0.38007
	57.50			  9.48723			  -0.33996			 0.60305
	57.75			  9.29121			  -0.37740			 0.51179
	58.00			  9.30224			  -0.02795			 0.33030
	58.25			  9.22996			  -0.19388			 0.59423
	58.50			  9.19754			  -0.18139			 0.52398
	58.75			  9.29966			  -0.33014			 0.45005
	59.00			  9.21465			  -0.44225			 0.33146
	59.25			  8.87058			  -0.26160			 0.37178
	59.50			  9.04070			  -0.22211			 0.68750
	59.75			  8.89242			  -0.04186			 0.82469
	60.00			  8.81361			  -0.18099			 0.75372
	60.25			  8.64923			  -0.19367			 0.64687
	60.50			  8.64349			  0.06330			 0.46488
	60.75			  8.50511			  0.32355			 0.40870
	61.00			  8.65970			  0.28386			 0.23088
	61.25			  8.78062			  0.61571			 0.29656
	61.50			  8.89220			  0.57438			 0.05302
	61.75			  8.94297			  0.53612			 -0.02991
	62.00			  8.95919			  0.72906			 -0.16526
	62.25			  8.91111			  0.83442			 -0.20876
	62.50			  9.16421			  0.79391			 -0.35697
	62.75			  9.23255			  0.70553			 -0.21396
	63.00			  9.44208			  0.49398			 -0.35208
	63.25			  9.35764			  0.36324			 -0.25679
	63.50			  9.30123			  0.46595			 -0.05070
	63.75			  9.30022			  0.70021			 -0.04940
	64.00			  9.02246			  0.70246			 -0.23958
	64.25			  9.18234			  0.59054			 -0.21723
	64.50			  9.27094			  0.45183			 -0.32121
	64.75			  9.27151			  0.63105			 -0.21087
	65.00			  9.19506			  0.73826			 -0.18770
	65.25			  9.28457			  0.59893			 -0.04680
	65.50			  9.55827			  0.43730			 0.06498
	65.75			  9.43262			  0.46738			 -0.27457
	66.00			  9.21735			  0.15742			 -0.19044
	66.25			  9.38916			  0.00683			 -0.13699
	66.50			  9.31834			  0.23414			 0.35583
	66.75			  9.58664			  0.09767			 0.14455
	67.00			  9.63236			  0.17501			 0.03263
	67.25			  10.02484			  0.20938			 0.12466
	67.50			  9.94817			  0.16499			 0.09374
	67.75			  9.74461			  0.00642			 0.10140
	68.00			  9.74269			  -0.03838			 0.18263
	68.25			  9.74089			  -0.16544			 0.08133
	68.50			  9.89210			  -0.27960			 0.08151
	68.75			  9.71882			  -0.29720			 0.48486
	69.00			  9.55253			  -0.23643			 0.32116
	69.25			  9.77388			  -0.15725			 0.19043
	69.50			  9.71196			  -0.25853			 0.08223
	69.75			  9.71680			  -0.01874			 -0.04214
	70.00			  9.80833			  0.09604			 -0.15101
	70.25			  9.96258			  0.07967			 -0.10988
	70.50			  9.75384			  -0.01363			 -0.10437
	70.75			  9.58856			  -0.14866			 -0.43640
	71.00			  9.44715			  -0.26241			 -0.18856
	71.25			  9.69574			  -0.27612			 0.23236
	71.50			  9.84695			  -0.24830			 -0.03614
	71.75			  9.93781			  -0.11879			 0.09634
	72.00			  9.93939			  -0.01690			 0.06955
	72.25			  9.82173			  -0.15132			 0.08295
	72.50			  9.75969			  -0.00667			 0.29876
	72.75			  9.38027			  -0.26241			 0.31874
	73.00			  9.46449			  -0.29044			 0.03971
	73.25			  9.74224			  -0.47274			 0.12367
	73.50			  9.60623			  -0.48747			 0.15848
	73.75			  9.79223			  -0.63948			 0.05275
	74.00			  9.68471			  -0.65278			 0.16941
	74.25			  9.69878			  -0.66813			 0.17152
	74.50			  9.74359			  -0.57422			 0.26283
	74.75			  9.60477			  -0.57770			 -0.14814
	75.00			  9.61119			  -0.34200			 -0.09671
	75.25			  9.94963			  -0.47110			 -0.00666
	75.50			  10.12403			  -0.70455			 -0.03672
	75.75			  10.15308			  -0.64358			 -0.09644
	76.00			  10.08237			  -0.72930			 0.10467
	76.25			  10.00525			  -0.68634			 0.32250
	76.50			  9.91856			  -0.60736			 -0.00984
	76.75			  9.95616			  -0.48727			 -0.07126
	77.00			  10.03858			  -0.55335			 -0.18600
	77.25			  10.09521			  -0.37699			 -0.27856
	77.50			  10.15342			  -0.28901			 -0.17955
	77.75			  10.18900			  -0.34405			 -0.23515
	78.00			  10.16220			  -0.29556			 -0.31817
	78.25			  10.16175			  -0.25484			 -0.18255
	78.50			  10.27524			  -0.22252			 -0.45683
	78.75			  10.34797			  -0.12636			 -0.49061
	79.00			  10.14126			  -0.29924			 -0.11754
	79.25			  10.05997			  -0.38231			 0.10405
	79.50			  9.86114			  -0.36389			 0.02072
	79.75			  10.01561			  -0.22436			 -0.05823
	80.00			  9.76544			  0.04018			 0.02873
	80.25			  9.58034			  0.10954			 -0.00648
	80.50			  9.43195			  -0.16462			 0.05772
	80.75			  9.48171			  0.02075			 0.12035
	81.00			  9.33737			  0.20795			 -0.10979
	81.25			  9.33568			  0.19813			 -0.35482
	81.50			  9.30123			  -0.16257			 -0.06530
	81.75			  9.53012			  -0.14375			 0.12470
	82.00			  9.61524			  0.07701			 0.01467
	82.25			  9.21927			  0.17358			 -0.10271
	82.50			  9.29853			  0.41480			 -0.13748
	82.75			  9.72198			  0.30145			 0.09683
	83.00			  9.54960			  0.38615			 0.04029
	83.25			  9.50806			  0.17624			 -0.25213
	83.50			  9.46482			  0.05675			 -0.24402
	83.75			  9.46054			  -0.11838			 -0.14129
	84.00			  9.74067			  0.00438			 0.05432
	84.25			  9.70711			  -0.08769			 0.00042
	84.50			  9.95301			  -0.08687			 -0.18385
	84.75			  9.97530			  -0.16932			 -0.12055
	85.00			  9.83727			  -0.08646			 -0.11051
	85.25			  9.92824			  -0.33893			 0.04522
	85.50			  10.17267			  -0.48583			 -0.31817
	85.75			  10.20712			  -0.52266			 -0.20486
	86.00			  9.90640			  -0.41382			 -0.18215
	86.25			  9.68021			  -0.25914			 -0.07216
	86.50			  9.70509			  -0.16114			 0.02869
	86.75			  9.73087			  -0.20697			 0.29208
	87.00			  9.80270			  -0.01199			 0.35539
	87.25			  9.91529			  0.23393			 0.30830
	87.50			  9.95053			  0.36672			 0.24177
	87.75			  9.97722			  -0.05352			 0.12510
	88.00			  9.97519			  -0.09526			 0.04598
	88.25			  10.01212			  -0.00913			 0.09679
	88.50			  9.83378			  0.32130			 0.01583
	88.75			  9.92193			  0.12816			 0.14365
	89.00			  9.89593			  0.19383			 0.25333
	89.25			  9.88320			  0.02709			 0.24092
	89.50			  9.97778			  -0.03675			 0.23075
	89.75			  9.68876			  0.18054			 -0.00823
	90.00			  9.55107			  0.17153			 -0.05191
	90.25			  9.50614			  -0.00237			 -0.15079
	90.50			  9.38421			  -0.04923			 -0.20934
	90.75			  9.47800			  -0.21372			 -0.00254
	91.00			  9.79448			  -0.08749			 0.29961
	91.25			  9.81250			  -0.14007			 0.22004
	91.50			  9.84042			  0.22616			 0.03371
	91.75			  10.05952			  0.09583			 -0.28130
	92.00			  10.01764			  0.21102			 -0.27883
	92.25			  10.01876			  0.39761			 -0.18215
	92.50			  9.99591			  0.01338			 -0.43550
	92.75			  10.11367			  -0.22293			 -0.52430
	93.00			  10.49175			  -0.17055			 -0.58586
	93.25			  10.41372			  -0.10488			 -0.56583
	93.50			  10.34572			  -0.18262			 -0.42036
	93.75			  10.23955			  -0.38190			 -0.29384
	94.00			  10.34381			  -0.40134			 -0.34594
	94.25			  10.43421			  -0.55028			 -0.37471
	94.50			  10.43838			  -0.72992			 -0.19962
	94.75			  10.61256			  -0.77718			 -0.16248
	95.00			  10.30834			  -0.82874			 -0.19062
	95.25			  9.88636			  -1.18698			 -0.21727
	95.50			  10.10906			  -1.07364			 -0.01419
	95.75			  10.01234			  -1.17430			 0.20149
	96.00			  10.16805			  -0.90710			 0.15947
	96.25			  10.28076			  -0.71314			 0.10920
	96.50			  10.08305			  -0.49402			 -0.00119
	96.75			  10.30339			  -0.49197			 0.06552
	97.00			  10.60974			  -0.44778			 0.06314
	97.25			  10.69080			  -0.40788			 -0.08645
	97.50			  10.56718			  -0.39929			 0.09285
	97.75			  10.35844			  -0.47028			 0.33773
	98.00			  10.35281			  -0.44328			 0.02994
	98.25			  10.37724			  -0.37719			 0.00862
	98.50			  10.27287			  -0.39561			 -0.01849
	98.75			  10.50650			  -0.72705			 -0.28210
	99.00			  10.55255			  -0.64071			 -0.19684
	99.25			  10.32602			  -0.59140			 -0.10926
	99.50			  10.27378			  -0.77063			 -0.14895
	99.75			  10.43489			  -0.69841			 -0.49755
	100.00			  10.37601			  -0.49402			 -0.71897
	100.25			  10.32692			  -0.56092			 -0.60199
	100.50			  10.38445			  -0.47888			 -0.49137
	100.75			  10.43410			  -0.44369			 -0.63940
	101.00			  10.18584			  -0.45801			 -0.99239
	101.25			  10.23020			  -0.50404			 -0.84876
	101.50			  10.16479			  -0.74076			 -1.11923
	101.75			  9.95357			  -0.67017			 -0.86430
	102.00			  10.23369			  -0.58731			 -0.74101
	102.25			  10.12414			  -0.60552			 -0.34290
	102.50			  10.00829			  -0.50036			 -0.46162
	102.75			  10.11187			  -0.35019			 -0.61812
	103.00			  10.00334			  -0.32625			 -0.45934
	103.25			  10.14340			  -0.55396			 -0.69760
	103.50			  10.07990			  -0.44021			 -0.86874
	103.75			  9.99084			  -0.55601			 -0.72761
	104.00			  9.82995			  -0.37228			 -0.51462
	104.25			  9.69372			  -0.32686			 -0.45804
	104.50			  10.04015			  -0.35878			 -0.26149
	104.75			  10.24022			  -0.05127			 -0.22915
	105.00			  10.22435			  -0.16298			 -0.19474
	105.25			  10.34516			  -0.31213			 0.02614
	105.50			  10.23853			  -0.21802			 -0.30871
	105.75			  10.26477			  -0.16564			 -0.31055
	106.00			  10.57169			  -0.22559			 -0.22381
	106.25			  10.59612			  -0.17833			 -0.09658
	106.50			  10.60997			  -0.30211			 -0.14124
	106.75			  10.56459			  -0.51427			 -0.04438
	107.00			  10.38130			  -0.54701			 0.07712
	107.25			  10.51303			  -0.56010			 -0.10863
	107.50			  10.56167			  -0.57770			 -0.46807
	107.75			  10.43534			  -0.41688			 -0.47717
	108.00			  10.51325			  -0.40768			 -0.32130
	108.25			  10.62303			  -0.52205			 -0.16539
	108.50			  10.58407			  -0.77718			 -0.38698
	108.75			  10.56121			  -0.54660			 -0.37520
	109.00			  10.54005			  -0.36103			 -0.31324
	109.25			  10.42284			  -0.33116			 -0.28479
	109.50			  10.23381			  -0.63928			 -0.46633
	109.75			  10.19406			  -0.67877			 -0.30979
	110.00			  10.15387			  -0.49954			 0.01211
	110.25			  10.42104			  -0.38394			 -0.20316
	110.50			  10.56876			  -0.43612			 -0.47385
	110.75			  10.63158			  -0.57647			 -0.42054
	111.00			  10.59589			  -0.46394			 -0.52771
	111.25			  10.65072			  -0.32052			 -0.69155
	111.50			  10.74215			  -0.29556			 -0.47488
	111.75			  10.58689			  -0.45965			 -0.34639
	112.00			  10.50740			  -0.73892			 -0.45042
	112.25			  10.23043			  -0.35632			 -0.23130
	112.50			  10.29911			  -0.12595			 -0.21898
	112.75			  10.61638			  -0.23357			 0.06319
	113.00			  10.67482			  -0.13413			 0.25015
	113.25			  10.35934			  -0.11081			 -0.02162
	113.50			  10.35473			  -0.04166			 -0.06732
	113.75			  10.47002			  0.20979			 -0.07126
	114.00			  10.57416			  0.26912			 -0.22753
	114.25			  10.63023			  0.42359			 -0.14254
	114.50			  10.53194			  0.46349			 -0.07695
	114.75			  10.62967			  0.28549			 -0.24586
	115.00			  10.53678			  0.07026			 -0.41597
	115.25			  10.80700			  -0.23439			 -0.44670
	115.50			  11.00234			  0.12836			 -0.40428
	115.75			  11.02936			  -0.07501			 -0.36463
	116.00			  11.23652			  -0.10303			 -0.32982
	116.25			  11.17471			  -0.19244			 -0.31655
	116.50			  11.16154			  -0.21474			 -0.13479
	116.75			  11.03105			  0.17112			 -0.29388
	117.00			  11.07417			  0.60446			 -0.37493
	117.25			  10.91587			  0.22534			 -0.55947
	117.50			  10.66986			  0.33480			 -0.53756
	117.75			  10.65748			  0.80210			 -0.58882
	118.00			  10.52631			  0.99155			 -0.66664
	118.25			  10.30271			  0.59586			 -0.53537
	118.50			  10.16197			  0.34892			 -0.71708
	118.75			  9.97654			  0.01645			 -0.60069
	119.00			  10.19294			  0.04816			 -0.66287
	119.25			  10.23707			  -0.14580			 -0.86757
	119.50			  10.08091			  -0.21147			 -0.39272
	119.75			  9.78401			  -0.32993			 -0.26826
	120.00			  9.80698			  -0.47990			 -0.35997
	120.25			  9.95087			  -0.53678			 -0.12440
	120.50			  9.91867			  -0.59754			 -0.22431
	120.75			  10.09465			  -0.42077			 -0.39478
	121.00			  10.03295			  -0.30743			 -0.32614
	121.25			  10.02304			  -0.04452			 -0.23255
	121.50			  9.98712			  0.10668			 -0.36454
	121.75			  9.92216			  0.19322			 -0.54245
	122.00			  10.02101			  0.15230			 -0.67824
	122.25			  10.27254			  0.05921			 -0.64182
	122.50			  10.50030			  -0.16237			 -0.49805
	122.75			  10.36869			  -0.08401			 -0.18152
	123.00			  10.49467			  -0.14273			 -0.11194
	123.25			  10.43219			  -0.32277			 -0.31915
	123.50			  10.59736			  -0.26978			 -0.25746
	123.75			  10.59251			  -0.24932			 -0.10025
	124.00			  10.42813			  0.08847			 -0.23277
	124.25			  10.43208			  0.03098			 -0.63106
	124.50			  10.59477			  0.10115			 -0.62685
	124.75			  10.54117			  -0.02263			 -0.53447
	125.00			  10.58576			  0.13164			 -0.24984
	125.25			  10.31555			  -0.11633			 -0.25800
	125.50			  10.54568			  -0.16482			 -0.12296
	125.75			  10.32579			  -0.21699			 -0.21073
	126.00			  10.57124			  -0.19817			 -0.15692
	126.25			  10.48668			  -0.17260			 0.07605
	126.50			  10.42633			  -0.32236			 0.06184
	126.75			  10.45054			  -0.20615			 0.06673
	127.00			  10.34009			  0.15578			 0.27188
	127.25			  10.36317			  0.37613			 0.18232
	127.50			  10.55423			  0.27731			 -0.22462
	127.75			  10.45493			  0.15066			 -0.20226
	128.00			  10.42712			  0.20488			 -0.26897
	128.25			  10.22863			  0.06187			 -0.13506
	128.50			  10.17695			  0.00336			 -0.14093
	128.75			  10.23628			  -0.00421			 -0.04465
	129.00			  10.20645			  0.05553			 -0.14913
	129.25			  10.42464			  0.20816			 -0.21105
	129.50			  10.20982			  0.26012			 -0.13708
	129.75			  10.17492			  0.26749			 -0.05272
	130.00			  10.15747			  0.22186			 -0.20146
	130.25			  10.18933			  0.19179			 -0.19348
	130.50			  10.17954			  0.04857			 -0.00778
	130.75			  10.19474			  -0.06744			 0.32833
	131.00			  10.16749			  0.12284			 0.31054
	131.25			  10.10951			  -0.06866			 0.35561
	131.50			  10.35630			  -0.06498			 0.18460
	131.75			  10.20498			  0.17624			 -0.00097
	132.00			  9.86451			  0.17153			 0.15279
	132.25			  9.31576			  -0.02447			 0.25494
	132.50			  9.34582			  -0.06273			 -0.00729
	132.75			  9.79606			  0.16212			 -0.26485
	133.00			  9.85821			  0.02361			 -0.17377
	133.25			  9.93860			  0.01256			 0.20853
	133.50			  9.79764			  -0.00503			 0.29123
	133.75			  9.57291			  -0.10733			 -0.11432
	134.00			  9.67570			  -0.07316			 -0.07592
	134.25			  9.76375			  -0.11817			 -0.03605
	134.50			  9.95256			  -0.24155			 -0.26396
	134.75			  9.77287			  -0.32441			 -0.02848
	135.00			  9.59588			  -0.58670			 -0.11956
	135.25			  9.58563			  -0.47642			 -0.23717
	135.50			  9.48858			  -0.46660			 0.02197
	135.75			  9.36102			  -0.14723			 -0.18896
	136.00			  9.16466			  -0.18794			 -0.36566
	136.25			  9.28052			  -0.04636			 -0.30285
	136.50			  9.31688			  0.06739			 -0.14362
	136.75			  9.59408			  0.02034			 -0.11302
	137.00			  9.84537			  0.26565			 -0.08457
	137.25			  9.65409			  0.31557			 0.14518
	137.50			  9.68471			  0.10197			 0.18093
	137.75			  9.67683			  0.28508			 0.18962
	138.00			  9.87431			  0.81949			 0.09921
	138.25			  9.92790			  0.47065			 0.23397
	138.50			  9.95492			  0.26790			 0.32344
	138.75			  9.77973			  0.30800			 0.39212
	139.00			  9.74776			  0.61182			 0.55431
	139.25			  9.73695			  0.27567			 0.35306
	139.50			  9.76859			  0.20468			 0.17425
	139.75			  9.70666			  0.26360			 0.47133
	140.00			  9.94513			  0.15414			 0.24405
	140.25			  10.18021			  -0.00401			 0.23317
	140.50			  10.30294			  -0.03900			 -0.05388
	140.75			  10.28954			  0.14412			 0.00759
	141.00			  9.98352			  0.34564			 0.26919
	141.25			  10.14069			  0.39577			 0.22389
	141.50			  10.33480			  0.11793			 0.08872
	141.75			  10.07483			  0.04612			 0.12430
	142.00			  10.31814			  0.18381			 0.09728
	142.25			  10.25587			  0.13368			 0.27618
	142.50			  10.18809			  -0.02549			 0.30955
	142.75			  10.41958			  0.03098			 0.02708
	143.00			  10.28751			  0.08622			 -0.05240
	143.25			  10.26882			  0.01563			 -0.07216
	143.50			  10.24889			  -0.06334			 0.12492
	143.75			  10.01977			  -0.05843			 -0.02185
	144.00			  9.84751			  -0.35264			 -0.05612
	144.25			  9.93342			  -0.61759			 0.02031
	144.50			  10.04162			  -0.58895			 0.12322
	144.75			  10.04848			  -0.58363			 0.03819
	145.00			  10.12775			  -0.62087			 0.34893
	145.25			  10.23707			  -0.67979			 0.51488
	145.50			  10.44547			  -0.65258			 0.12837
	145.75			  10.22840			  -0.59304			 0.24047
	146.00			  10.03047			  -0.67406			 0.04791
	146.25			  10.00548			  -0.60880			 -0.19971
	146.50			  9.86519			  -0.41750			 -0.29070
	146.75			  9.82578			  -0.67488			 -0.01284
	147.00			  9.79201			  -0.71866			 -0.01678
	147.25			  9.93162			  -0.62660			 0.11354
	147.50			  10.02124			  -0.57299			 0.16829
	147.75			  9.96404			  -0.68265			 0.04285
	148.00			  10.13462			  -0.60204			 -0.27874
	148.25			  9.94670			  -0.36696			 -0.10630
	148.50			  9.98769			  -0.29085			 -0.06813
	148.75			  10.13056			  -0.27776			 -0.13762
	149.00			  9.94299			  -0.32441			 -0.14111
	149.25			  9.89052			  -0.37085			 -0.10473
	149.50			  9.94040			  -0.78086			 -0.31978
	149.75			  10.00548			  -0.51918			 -0.05101
	150.00			  9.83862			  -0.28513			 0.13268
	150.25			  9.71218			  -0.25546			 0.11216
	150.50			  9.51830			  -0.44307			 0.33137
	150.75			  9.68167			  -0.56440			 0.16310
	151.00			  9.62155			  -0.64153			 0.27371
	151.25			  9.88973			  -0.79293			 0.12210
	151.50			  9.88467			  -0.67611			 0.09352
	151.75			  10.09453			  -0.60286			 0.39777
	152.00			  10.13416			  -0.54087			 0.34436
	152.25			  10.07190			  -0.32441			 0.04097
	152.50			  9.84841			  -0.28144			 -0.06315
	152.75			  9.99028			  -0.51632			 0.04119
	153.00			  9.92892			  -0.70005			 -0.12077
	153.25			  10.02135			  -0.55417			 -0.02709
	153.50			  9.97395			  -0.46210			 0.14970
	153.75			  10.00052			  -0.53391			 0.17349
	154.00			  10.08136			  -0.57626			 0.08814
	154.25			  10.09465			  -0.75999			 0.17555
	154.50			  10.07888			  -0.89789			 0.04630
	154.75			  10.02619			  -0.67815			 -0.10218
	155.00			  10.08226			  -0.49606			 -0.24442
	155.25			  10.19057			  -0.34998			 -0.13076
	155.50			  10.10028			  0.00090			 -0.24290
	155.75			  9.71319			  -0.24421			 -0.23385
	156.00			  9.64136			  -0.58997			 -0.40352
	156.25			  9.57539			  -0.43530			 -0.27413
	156.50			  9.65814			  -0.55785			 -0.09084
	156.75			  9.69664			  -0.56072			 -0.29805
	157.00			  9.57460			  -0.65401			 -0.37596
	157.25			  9.82522			  -0.72296			 -0.33201
	157.50			  9.95076			  -0.72705			 -0.34671
	157.75			  10.05445			  -0.72337			 -0.37677
	158.00			  10.08372			  -0.53801			 -0.08690
	158.25			  10.27772			  -0.32072			 -0.09219
	158.50			  10.16727			  -0.42405			 -0.19321
	158.75			  10.17256			  -0.40706			 -0.08676
	159.00			  10.04477			  -0.45658			 0.07829
	159.25			  10.21714			  -0.30436			 -0.00160
	159.50			  10.09341			  -0.26651			 0.19016
	159.75			  10.10613			  -0.43080			 0.32402
	160.00			  10.02698			  -0.72746			 0.50364
	160.25			  10.30361			  -0.87497			 0.60583
	160.50			  10.26049			  -0.87702			 0.23514
	160.75			  10.22153			  -0.81912			 0.38697
	161.00			  10.31994			  -0.36349			 0.14585
	161.25			  10.41215			  0.02075			 0.09441
	161.50			  10.43309			  -0.00503			 0.12869
	161.75			  10.39109			  -0.32604			 0.38585
	162.00			  10.43939			  -0.20738			 0.53509
	162.25			  10.52474			  -0.29965			 0.37263
	162.50			  10.37691			  -0.20308			 0.15136
	162.75			  10.23099			  -0.05209			 0.24078
	163.00			  10.35146			  -0.18180			 0.13850
	163.25			  10.44761			  -0.35305			 0.23348
	163.50			  10.10703			  -0.20554			 0.05476
	163.75			  9.71274			  -0.13393			 -0.04752
	164.00			  9.72186			  -0.12206			 -0.01333
	164.25			  9.85438			  -0.05639			 0.26090
	164.50			  9.83389			  -0.36758			 -0.01410
	164.75			  9.89052			  -0.40461			 -0.05218
	165.00			  10.07877			  -0.32257			 0.30091
	165.25			  9.97575			  -0.23398			 0.50480
	165.50			  10.03891			  -0.30190			 0.52913
	165.75			  10.17008			  -0.22150			 0.22783