--------------TurbSim v2.00.* User Time Series Input File-----------------------
     Time series input from low-res turbsim run
--------------------------------------------------------------------------------
          3 nComp - Number of velocity components in the file
          1 nPoints - Number of time series points contained in this file (-)
          1 RefPtID - Index of the reference point (1-nPoints)
     Pointyi Pointzi ! nPoints listed in order of increasing height
       (m)     (m)
       -0.56486   94.00000
--------Time Series-------------------------------------------------------------
Elapsed Time         Point01u             Point01v           Point01w
         (s)            (m/s)                (m/s)              (m/s)
	0.00			  10.46119			  -0.12262			 0.11536
	0.25			  10.56310			  -0.02973			 0.21517
	0.50			  10.68914			  -0.23709			 0.13582
	0.75			  10.59699			  -0.33533			 0.36852
	1.00			  10.74066			  -0.48206			 0.26135
	1.25			  10.94847			  -0.36923			 0.31610
	1.50			  10.54734			  -0.08214			 0.05753
	1.75			  10.73003			  -0.01247			 0.00940
	2.00			  10.75854			  -0.11050			 0.10688
	2.25			  10.63875			  -0.18428			 0.41437
	2.50			  10.92659			  -0.02685			 0.24546
	2.75			  10.79830			  -0.11009			 0.31106
	3.00			  11.05888			  -0.07124			 0.29289
	3.25			  10.82931			  -0.12632			 0.18372
	3.50			  10.83056			  -0.25641			 0.01895
	3.75			  10.77104			  0.09337			 -0.08775
	4.00			  10.84069			  0.18544			 -0.10066
	4.25			  10.74878			  0.25798			 0.13838
	4.50			  10.88158			  0.21770			 0.04006
	4.75			  10.73440			  0.07261			 -0.15015
	5.00			  10.55010			  -0.06138			 -0.12610
	5.25			  10.52346			  0.08330			 -0.21450
	5.50			  10.57485			  0.13468			 -0.12470
	5.75			  10.47707			  -0.08296			 0.14574
	6.00			  10.37366			  0.04980			 -0.04111
	6.25			  10.68414			  -0.08234			 -0.23947
	6.50			  10.67614			  -0.03528			 -0.30596
	6.75			  10.44206			  -0.12961			 -0.19483
	7.00			  10.51258			  -0.36574			 -0.03529
	7.25			  10.36791			  -0.28313			 -0.12876
	7.50			  10.38979			  -0.41794			 -0.03109
	7.75			  10.23412			  -0.21736			 0.16904
	8.00			  10.03868			  -0.22661			 0.14756
	8.25			  9.83674			  -0.17790			 0.05180
	8.50			  9.81411			  -0.11296			 -0.06720
	8.75			  9.83637			  0.09111			 -0.17372
	9.00			  9.63693			  -0.00548			 -0.27605
	9.25			  9.49326			  -0.24058			 0.04127
	9.50			  9.52739			  -0.34971			 0.27001
	9.75			  9.56678			  -0.43500			 0.23828
	10.00			  9.59479			  -0.68572			 0.03288
	10.25			  9.42723			  -0.58749			 0.04001
	10.50			  9.51589			  -0.96336			 0.10087
	10.75			  9.75334			  -0.94137			 0.16186
	11.00			  9.84474			  -1.25601			 -0.08165
	11.25			  9.88126			  -1.33061			 0.00525
	11.50			  9.78447			  -1.27512			 0.08764
	11.75			  9.99454			  -0.87191			 -0.16291
	12.00			  9.91964			  -0.85958			 -0.02834
	12.25			  9.82686			  -0.94199			 0.06066
	12.50			  9.93102			  -0.86349			 0.19061
	12.75			  9.72383			  -0.50179			 0.24192
	13.00			  9.46750			  -0.37293			 -0.21375
	13.25			  9.51564			  -0.53159			 -0.19558
	13.50			  9.60479			  -0.60742			 -0.17097
	13.75			  9.64055			  -0.48987			 -0.36780
	14.00			  9.48750			  -0.58153			 -0.28001
	14.25			  9.39397			  -0.77224			 0.08857
	14.50			  9.36684			  -0.82752			 -0.17135
	14.75			  9.45699			  -0.68983			 -0.26622
	15.00			  9.49038			  -0.60352			 -0.35023
	15.25			  9.46100			  -0.47857			 -0.27712
	15.50			  9.57091			  -0.42143			 -0.08547
	15.75			  9.71820			  -0.34642			 0.02296
	16.00			  9.73546			  -0.41897			 0.11177
	16.25			  9.51451			  -0.45843			 0.10613
	16.50			  9.43149			  -0.63722			 0.31153
	16.75			  9.33833			  -0.44712			 0.17114
	17.00			  9.34371			  -0.62818			 0.14001
	17.25			  9.43611			  -0.51206			 0.19961
	17.50			  9.40685			  -0.66517			 0.40873
	17.75			  9.52214			  -0.61112			 0.22006
	18.00			  9.65468			  -0.49233			 0.47592
	18.25			  9.55678			  -0.50076			 0.56413
	18.50			  9.41698			  -0.59201			 0.54465
	18.75			  9.52139			  -0.68551			 0.35943
	19.00			  9.69395			  -0.59982			 0.11289
	19.25			  9.63280			  -0.45329			 -0.01273
	19.50			  9.75959			  -0.31971			 -0.12540
	19.75			  9.77147			  -0.63352			 0.16825
	20.00			  9.40360			  -0.67277			 0.11932
	20.25			  9.65831			  -0.64256			 0.22421
	20.50			  10.00805			  -0.44630			 0.29937
	20.75			  10.21161			  -0.66455			 0.42336
	21.00			  9.87875			  -0.67216			 0.17948
	21.25			  9.83962			  -0.81067			 0.06457
	21.50			  9.83186			  -0.53734			 -0.00034
	21.75			  9.76272			  -0.35156			 -0.22978
	22.00			  9.78823			  -0.32073			 -0.02187
	22.25			  9.94940			  -0.34396			 0.12892
	22.50			  9.99667			  -0.41136			 0.17566
	22.75			  9.74371			  -0.36903			 0.12622
	23.00			  9.65006			  -0.58831			 0.29080
	23.25			  9.79735			  -0.50179			 0.05259
	23.50			  9.76934			  -0.54104			 0.28311
	23.75			  9.94953			  -0.46192			 0.39988
	24.00			  9.88376			  -0.38383			 0.21480
	24.25			  10.02580			  -0.50343			 0.23194
	24.50			  9.91051			  -0.53570			 0.20072
	24.75			  9.84649			  -0.33450			 0.17808
	25.00			  9.61429			  -0.51289			 -0.04773
	25.25			  9.75284			  -0.64811			 0.05152
	25.50			  9.72245			  -0.52070			 -0.01348
	25.75			  9.78898			  -0.66352			 -0.06590
	26.00			  9.96778			  -0.59571			 0.23441
	26.25			  10.33453			  -0.67627			 0.18684
	26.50			  10.31740			  -0.48350			 0.35738
	26.75			  10.40180			  -0.48966			 0.34485
	27.00			  10.31927			  -0.38074			 0.34792
	27.25			  10.46282			  -0.14626			 0.23106
	27.50			  10.62925			  -0.35752			 0.08521
	27.75			  10.48945			  -0.47096			 -0.17521
	28.00			  10.60236			  -0.40088			 -0.19758
	28.25			  10.51433			  -0.33574			 -0.01357
	28.50			  10.67939			  -0.34540			 0.08032
	28.75			  10.63287			  -0.42411			 -0.34152
	29.00			  10.60011			  -0.53015			 -0.15397
	29.25			  10.73540			  -0.63064			 0.00274
	29.50			  10.48970			  -0.71182			 -0.22563
	29.75			  10.50921			  -0.80122			 -0.09833
	30.00			  10.80318			  -0.96090			 -0.20858
	30.25			  10.95585			  -0.96542			 -0.18607
	30.50			  10.78705			  -0.62797			 -0.15625
	30.75			  10.91209			  -0.77244			 -0.26375
	31.00			  10.64888			  -0.86945			 0.09304
	31.25			  10.53134			  -0.88424			 0.00013
	31.50			  10.49120			  -0.89698			 -0.31710
	31.75			  10.31352			  -0.74943			 0.26820
	32.00			  10.77017			  -0.72209			 0.34471
	32.25			  10.64025			  -0.68038			 0.09896
	32.50			  10.68826			  -0.48740			 0.05842
	32.75			  10.76354			  -0.36184			 -0.00244
	33.00			  11.00287			  -0.63969			 -0.03207
	33.25			  10.91809			  -0.51987			 0.25100
	33.50			  10.85144			  -0.44219			 0.09010
	33.75			  10.98799			  -0.33615			 0.05544
	34.00			  10.69114			  -0.08769			 0.03619
	34.25			  10.45544			  -0.29648			 -0.16380
	34.50			  10.62674			  -0.53570			 -0.21482
	34.75			  10.77429			  -0.77656			 -0.06623
	35.00			  10.46407			  -0.66743			 -0.05672
	35.25			  10.37404			  -0.70072			 0.05245
	35.50			  10.39129			  -0.63701			 -0.03971
	35.75			  10.34803			  -0.75683			 -0.02065
	36.00			  10.33190			  -0.72086			 0.01257
	36.25			  10.27413			  -0.90335			 0.14770
	36.50			  10.38154			  -0.74450			 0.05879
	36.75			  10.48532			  -0.56673			 0.00889
	37.00			  10.64788			  -0.70257			 -0.08883
	37.25			  10.50983			  -1.16394			 -0.15299
	37.50			  10.26600			  -1.24409			 -0.08002
	37.75			  10.32352			  -1.27964			 -0.25634
	38.00			  10.17748			  -1.62182			 -0.01567
	38.25			  10.10545			  -1.60558			 -0.01819
	38.50			  10.16647			  -1.43152			 0.05525
	38.75			  10.00417			  -1.50550			 -0.08710
	39.00			  9.92690			  -1.51865			 0.16242
	39.25			  10.19236			  -1.67546			 0.05525
	39.50			  10.54547			  -1.39843			 -0.14749
	39.75			  10.67326			  -1.45844			 -0.13547
	40.00			  10.66963			  -1.68121			 -0.23523
	40.25			  10.59173			  -1.75191			 -0.13789
	40.50			  10.73953			  -1.79671			 -0.43699
	40.75			  10.92084			  -1.39267			 -0.46313
	41.00			  10.96160			  -1.28519			 -0.44175
	41.25			  10.80293			  -1.25704			 -0.18752
	41.50			  10.51058			  -1.13784			 -0.20634
	41.75			  10.44506			  -1.11893			 -0.01446
	42.00			  10.20949			  -1.12859			 0.25044
	42.25			  10.31927			  -1.01412			 0.36996
	42.50			  10.35466			  -0.91712			 0.34359
	42.75			  10.36291			  -0.76875			 0.25906
	43.00			  10.25750			  -0.81684			 0.47056
	43.25			  10.29201			  -0.34334			 0.45481
	43.50			  10.23462			  -0.33574			 0.43091
	43.75			  9.92539			  -0.43335			 0.16345
	44.00			  10.06581			  -0.62201			 0.06382
	44.25			  10.09570			  -0.73443			 0.19122
	44.50			  10.05244			  -1.03385			 0.15310
	44.75			  10.08582			  -1.20545			 0.08111
	45.00			  9.82786			  -1.24553			 -0.11040
	45.25			  9.78310			  -1.15860			 -0.22684
	45.50			  9.98091			  -0.91384			 -0.23332
	45.75			  10.16435			  -0.91897			 -0.21007
	46.00			  10.23099			  -0.72785			 -0.61369
	46.25			  10.28851			  -0.65921			 -0.54347
	46.50			  10.09332			  -0.50056			 -0.62617
	46.75			  9.87513			  -0.47877			 -0.42539
	47.00			  10.22224			  -0.08851			 -0.28900
	47.25			  10.14409			  0.09152			 -0.14870
	47.50			  10.28551			  0.13200			 -0.04186
	47.75			  10.32115			  0.31121			 -0.12522
	48.00			  10.27476			  0.27792			 -0.14749
	48.25			  10.58548			  0.18544			 -0.14302
	48.50			  10.84106			  0.33464			 -0.10607
	48.75			  10.81105			  0.36546			 0.07179
	49.00			  10.98899			  0.32066			 -0.38331
	49.25			  10.91084			  0.25757			 -0.42758
	49.50			  10.71777			  0.12255			 -0.04181
	49.75			  10.59323			  0.09974			 -0.10024
	50.00			  10.77054			  -0.07988			 -0.24492
	50.25			  10.91871			  0.25367			 -0.13808
	50.50			  10.96723			  0.21441			 0.11583
	50.75			  11.23607			  0.27463			 0.13637
	51.00			  11.07264			  0.18235			 0.26815
	51.25			  10.97773			  0.16078			 0.43962
	51.50			  11.04513			  -0.06549			 0.25338
	51.75			  11.00349			  -0.18880			 0.24676
	52.00			  11.14779			  -0.15961			 0.33539
	52.25			  11.41925			  -0.01247			 0.42113
	52.50			  11.55517			  0.05987			 0.32448
	52.75			  11.55792			  0.13283			 0.40575
	53.00			  11.42113			  0.12974			 0.28935
	53.25			  11.48177			  0.21544			 0.33283
	53.50			  11.60031			  0.32251			 0.07063
	53.75			  11.55917			  0.26867			 -0.09260
	54.00			  11.44963			  0.39855			 0.14658
	54.25			  11.46676			  0.36731			 -0.09022
	54.50			  11.32910			  0.38375			 -0.03780
	54.75			  11.09690			  0.34080			 0.46008
	55.00			  11.03588			  0.26538			 0.71627
	55.25			  10.96098			  0.08207			 0.62694
	55.50			  10.76329			  -0.00219			 0.36642
	55.75			  10.54910			  -0.06652			 0.09528
	56.00			  10.11446			  0.17598			 0.17202
	56.25			  10.32840			  0.12029			 0.36912
	56.50			  10.41393			  0.18503			 0.63999
	56.75			  10.65138			  0.23640			 0.71049
	57.00			  10.90784			  0.20023			 0.55355
	57.25			  10.55122			  -0.04679			 0.73062
	57.50			  10.37892			  -0.14256			 0.47970
	57.75			  10.35566			  -0.06570			 0.29005
	58.00			  10.14296			  -0.24079			 0.27290
	58.25			  10.27476			  -0.15633			 0.14430
	58.50			  10.28664			  -0.56940			 0.17076
	58.75			  10.13546			  -0.66640			 0.05833
	59.00			  10.16260			  -0.27881			 -0.11059
	59.25			  9.97379			  -0.17914			 -0.12997
	59.50			  10.22699			  -0.26710			 0.08810
	59.75			  10.09120			  -0.12735			 0.21587
	60.00			  10.40380			  -0.15920			 0.03447
	60.25			  10.60961			  -0.06693			 -0.07387
	60.50			  10.48395			  -0.12550			 -0.17037
	60.75			  10.51446			  0.05062			 -0.06049
	61.00			  10.53772			  -0.05624			 0.21270
	61.25			  10.39980			  -0.18530			 0.34583
	61.50			  10.36103			  -0.18448			 -0.04773
	61.75			  10.49020			  -0.08111			 -0.07829
	62.00			  10.48332			  0.23517			 -0.03212
	62.25			  10.20548			  0.08392			 0.16457
	62.50			  10.16972			  0.09789			 0.02706
	62.75			  10.07707			  0.26456			 0.09374
	63.00			  9.88476			  0.09316			 0.16662
	63.25			  9.87350			  -0.04021			 0.08987
	63.50			  9.98016			  0.12687			 0.03149
	63.75			  10.03856			  0.15441			 0.06890
	64.00			  10.13846			  -0.09960			 -0.12335
	64.25			  10.06406			  -0.19065			 -0.13323
	64.50			  10.28476			  0.23887			 -0.07028
	64.75			  10.74528			  0.23784			 0.12701
	65.00			  10.65300			  0.21503			 -0.09661
	65.25			  10.54647			  0.31326			 -0.37330
	65.50			  10.53634			  0.39650			 -0.21487
	65.75			  10.43468			  0.40143			 -0.31701
	66.00			  10.16222			  0.27031			 -0.73898
	66.25			  10.25688			  0.26518			 -0.68307
	66.50			  10.37166			  -0.05563			 -0.78404
	66.75			  10.28026			  0.08289			 -0.82644
	67.00			  10.05919			  0.07837			 -0.76051
	67.25			  10.14184			  -0.07577			 -0.88394
	67.50			  10.19848			  0.11926			 -0.46379
	67.75			  10.27888			  0.21174			 -0.36542
	68.00			  10.45544			  0.52001			 -0.39468
	68.25			  10.24537			  0.65708			 -0.30727
	68.50			  10.10883			  0.63633			 -0.35270
	68.75			  10.07569			  0.29086			 -0.30289
	69.00			  10.16047			  0.19654			 -0.45437
	69.25			  9.80035			  -0.02007			 -0.59267
	69.50			  9.55978			  -0.26011			 -0.75417
	69.75			  9.76997			  0.08392			 -0.59957
	70.00			  9.61567			  0.40102			 -0.28984
	70.25			  9.58729			  0.20866			 -0.18430
	70.50			  9.38460			  -0.14215			 -0.18654
	70.75			  9.10826			  -0.21510			 -0.24912
	71.00			  9.14314			  -0.12550			 -0.20923
	71.25			  9.28594			  0.21524			 -0.24227
	71.50			  9.38097			  0.44356			 -0.16767
	71.75			  9.24418			  0.03233			 -0.16082
	72.00			  9.45337			  0.09768			 0.04756
	72.25			  9.44299			  0.30751			 0.10045
	72.50			  9.27369			  0.00192			 0.23041
	72.75			  9.11263			  0.03953			 0.22696
	73.00			  9.00773			  -0.25086			 0.09197
	73.25			  9.39735			  -0.20955			 0.41455
	73.50			  9.20966			  -0.16352			 0.17957
	73.75			  9.21704			  -0.20647			 -0.09912
	74.00			  9.31470			  -0.06241			 0.05483
	74.25			  9.31032			  0.21565			 -0.24506
	74.50			  9.35746			  0.09748			 -0.31235
	74.75			  9.23305			  0.06994			 -0.21026
	75.00			  9.14227			  0.04939			 -0.18001
	75.25			  8.95671			  -0.03651			 -0.20625
	75.50			  8.95433			  -0.01021			 -0.26342
	75.75			  8.90757			  0.45137			 -0.15760
	76.00			  8.84680			  0.48219			 -0.21659
	76.25			  8.83004			  0.51590			 -0.17433
	76.50			  8.69012			  0.44089			 -0.09027
	76.75			  8.86018			  0.14968			 -0.13910
	77.00			  8.79728			  0.17557			 0.09020
	77.25			  8.50356			  0.09070			 0.00730
	77.50			  8.59134			  0.34656			 -0.04600
	77.75			  8.75664			  0.39609			 0.00381
	78.00			  9.03548			  0.50686			 0.13903
	78.25			  9.09688			  0.57282			 -0.07848
	78.50			  9.14852			  0.77422			 -0.17494
	78.75			  9.28469			  0.69428			 -0.17242
	79.00			  9.19428			  0.65112			 0.17738
	79.25			  9.27894			  0.75758			 0.27304
	79.50			  9.37272			  0.62811			 0.34228
	79.75			  9.30695			  0.71689			 0.48720
	80.00			  9.65068			  0.60077			 0.44466
	80.25			  9.71470			  0.75655			 0.52420
	80.50			  9.70920			  0.82314			 0.41106
	80.75			  9.52427			  0.50336			 0.20683
	81.00			  9.77560			  0.12111			 0.28674
	81.25			  9.42111			  0.00952			 0.09654
	81.50			  9.27031			  0.15235			 0.12454
	81.75			  9.02761			  0.39013			 -0.14502
	82.00			  9.01023			  0.24771			 -0.44589
	82.25			  9.18391			  0.18112			 -0.41374
	82.50			  8.96196			  0.10159			 -0.42963
	82.75			  9.04186			  0.12687			 -0.56434
	83.00			  9.07800			  0.08001			 -0.38271
	83.25			  9.23067			  -0.13886			 -0.40097
	83.50			  9.05161			  -0.10433			 -0.46136
	83.75			  9.17753			  -0.09652			 -0.68046
	84.00			  9.32245			  -0.22065			 -0.42693
	84.25			  9.50238			  -0.05275			 -0.15616
	84.50			  9.80248			  -0.04823			 -0.38751
	84.75			  9.83399			  -0.46623			 -0.14115
	85.00			  9.69332			  -0.21551			 -0.04069
	85.25			  9.72508			  -0.09159			 -0.12876
	85.50			  9.76597			  -0.21449			 -0.15769
	85.75			  9.78060			  -0.11358			 -0.25093
	86.00			  9.79448			  0.02000			 -0.17358
	86.25			  9.85312			  -0.34087			 -0.30224
	86.50			  9.70883			  -0.25518			 -0.15094
	86.75			  9.60054			  -0.36327			 -0.07913
	87.00			  9.59741			  -0.49932			 -0.05001
	87.25			  9.77122			  -0.39636			 0.00777
	87.50			  9.95178			  -0.33779			 0.08065
	87.75			  9.75096			  -0.18982			 -0.10164
	88.00			  9.41348			  -0.19291			 -0.11273
	88.25			  9.39410			  -0.48905			 -0.01730
	88.50			  9.20804			  -0.36019			 0.10119
	88.75			  9.17340			  -0.50097			 -0.00854
	89.00			  9.24155			  -0.57166			 -0.01008
	89.25			  9.28531			  -0.62982			 -0.20918
	89.50			  9.49688			  -0.46747			 -0.02615
	89.75			  9.60454			  -0.45740			 0.10520
	90.00			  9.52752			  -0.42595			 -0.15746
	90.25			  9.53052			  -0.48699			 0.10357
	90.50			  9.43061			  -0.72353			 -0.17354
	90.75			  9.37459			  -0.75333			 -0.17605
	91.00			  9.37297			  -0.74203			 -0.05532
	91.25			  9.46125			  -0.51782			 -0.05076
	91.50			  9.59866			  -0.84746			 0.09504
	91.75			  9.52939			  -0.92123			 -0.03347
	92.00			  9.41811			  -0.64215			 0.10352
	92.25			  9.42911			  -0.69024			 0.02161
	92.50			  9.30657			  -0.41527			 0.08554
	92.75			  9.40598			  -0.03734			 0.09868
	93.00			  9.83362			  -0.37828			 0.21284
	93.25			  9.95453			  -0.22435			 0.09416
	93.50			  9.96678			  -0.26360			 -0.07433
	93.75			  10.00029			  -0.53899			 0.10860
	94.00			  9.84699			  -0.45473			 0.24019
	94.25			  9.89288			  -0.76669			 0.14481
	94.50			  9.96653			  -0.51782			 0.17761
	94.75			  9.72496			  -0.45637			 0.13749
	95.00			  9.59816			  -0.54453			 0.16461
	95.25			  10.04531			  -0.44836			 -0.14749
	95.50			  10.03068			  -0.24634			 -0.23216
	95.75			  10.06331			  -0.04432			 -0.14851
	96.00			  10.16622			  0.09522			 -0.33103
	96.25			  10.27976			  0.22962			 -0.43984
	96.50			  10.05794			  0.13180			 -0.38723
	96.75			  10.14784			  -0.07844			 -0.20895
	97.00			  10.05806			  0.06110			 -0.17237
	97.25			  9.83787			  0.37882			 -0.09041
	97.50			  10.12771			  0.30237			 -0.23896
	97.75			  10.28526			  0.28614			 -0.21599
	98.00			  9.97304			  0.34676			 -0.23942
	98.25			  9.87663			  0.41869			 -0.23546
	98.50			  9.87038			  0.38992			 -0.50642
	98.75			  9.54077			  -0.03754			 -0.19320
	99.00			  9.63868			  -0.18736			 0.07100
	99.25			  9.82924			  0.03151			 0.06285
	99.50			  9.77510			  -0.23606			 0.00008
	99.75			  9.94790			  -0.46747			 -0.06809
	100.00			  10.11383			  -0.49562			 -0.27190
	100.25			  10.12246			  -0.54207			 -0.24977
	100.50			  10.06594			  -0.47980			 -0.17615
	100.75			  9.78960			  -0.21099			 -0.35745
	101.00			  9.64243			  -0.64462			 -0.12880
	101.25			  9.73846			  -0.94816			 -0.07284
	101.50			  9.54002			  -0.69312			 0.03927
	101.75			  9.45950			  -0.44137			 0.06886
	102.00			  9.38322			  -0.33224			 0.08708
	102.25			  9.51189			  -0.38711			 -0.02238
	102.50			  9.58941			  -0.37252			 0.22481
	102.75			  9.49901			  -0.47240			 0.40272
	103.00			  9.27181			  -0.64791			 0.28255
	103.25			  9.34458			  -0.51617			 -0.03095
	103.50			  9.27419			  -0.39225			 -0.27782
	103.75			  9.45237			  -0.35937			 -0.01576
	104.00			  9.68994			  -0.31395			 0.05511
	104.25			  9.66894			  -0.39821			 -0.08873
	104.50			  9.64956			  -0.34355			 -0.16175
	104.75			  9.51851			  -0.30655			 -0.17307
	105.00			  9.69420			  -0.18325			 -0.17083
	105.25			  9.68019			  -0.31703			 -0.43504
	105.50			  9.86375			  -0.36595			 -0.48009
	105.75			  9.78510			  -0.40664			 -0.48913
	106.00			  9.63155			  -0.62530			 -0.38480
	106.25			  9.55690			  -0.49644			 -0.09549
	106.50			  9.35784			  -0.32176			 -0.16883
	106.75			  9.27356			  -0.00384			 -0.09027
	107.00			  9.22492			  0.02761			 0.08433
	107.25			  9.43686			  -0.34807			 0.03428
	107.50			  9.31532			  -0.43150			 -0.32744
	107.75			  9.41010			  -0.32649			 -0.11394
	108.00			  9.39785			  0.13694			 -0.13398
	108.25			  9.48000			  0.24154			 -0.28854
	108.50			  9.76547			  0.08186			 -0.47166
	108.75			  9.68519			  -0.06898			 -0.26892
	109.00			  9.71658			  0.03603			 -0.33117
	109.25			  9.81586			  0.21133			 -0.42972
	109.50			  9.95340			  0.08001			 -0.23803
	109.75			  9.95953			  -0.01678			 -0.01050
	110.00			  9.91827			  0.18770			 0.03447
	110.25			  9.61880			  0.27093			 -0.04647
	110.50			  9.50701			  0.11269			 -0.00537
	110.75			  9.71995			  0.42773			 -0.09204
	111.00			  9.75321			  0.46616			 0.09975
	111.25			  9.89876			  0.48178			 -0.04661
	111.50			  9.75421			  0.49432			 -0.13547
	111.75			  9.66431			  0.51877			 -0.17195
	112.00			  9.43836			  0.59749			 -0.30834
	112.25			  9.51464			  0.55885			 -0.57245
	112.50			  9.28907			  0.66284			 -0.63349
	112.75			  9.35421			  0.85478			 -0.61876
	113.00			  9.32408			  0.95055			 -0.46211
	113.25			  9.23917			  0.83793			 -0.26198
	113.50			  9.28306			  0.57693			 0.01695
	113.75			  9.40573			  0.56686			 -0.05714
	114.00			  9.56253			  0.48959			 -0.12368
	114.25			  9.44336			  0.44726			 0.20375
	114.50			  9.22867			  0.64455			 0.18078
	114.75			  9.34096			  0.60386			 0.20641
	115.00			  9.37497			  0.49206			 -0.11310
	115.25			  9.29644			  0.53994			 -0.06795
	115.50			  9.44074			  0.47541			 0.10324
	115.75			  9.38660			  0.52802			 0.05781
	116.00			  9.44487			  0.40225			 0.11913
	116.25			  9.89701			  0.39609			 0.19178
	116.50			  9.65981			  0.48692			 0.12044
	116.75			  9.48275			  0.52535			 0.03335
	117.00			  9.70607			  0.63653			 0.19406
	117.25			  9.72758			  0.43821			 -0.22228
	117.50			  9.58679			  0.39341			 -0.60656
	117.75			  9.73721			  0.40636			 -0.50120
	118.00			  9.49426			  0.51734			 -0.65879
	118.25			  9.41798			  0.42897			 -0.33294
	118.50			  9.38497			  0.21092			 -0.25326
	118.75			  9.46812			  0.00993			 -0.38648
	119.00			  9.37472			  -0.03631			 -0.34161
	119.25			  9.43761			  -0.14954			 -0.29637
	119.50			  9.44149			  -0.06981			 -0.28295
	119.75			  9.43236			  -0.26052			 -0.30079
	120.00			  9.55640			  -0.16866			 -0.51024
	120.25			  9.41398			  -0.18016			 -0.39445
	120.50			  9.71058			  0.07857			 0.01471
	120.75			  9.66231			  0.06028			 -0.23323
	121.00			  10.14096			  -0.06898			 -0.33877
	121.25			  10.27363			  -0.26648			 -0.23868
	121.50			  10.29739			  -0.43849			 -0.49650
	121.75			  10.31102			  -0.38814			 -0.58321
	122.00			  10.16560			  -0.26381			 -0.50824
	122.25			  9.89776			  -0.35547			 -0.81657
	122.50			  9.80085			  -0.26833			 -0.76657
	122.75			  9.87450			  -0.23524			 -0.58317
	123.00			  9.97316			  -0.05665			 -0.60870
	123.25			  9.98479			  -0.16886			 -0.77901
	123.50			  10.09257			  -0.22743			 -0.66983
	123.75			  9.87888			  0.01939			 -0.73046
	124.00			  9.86237			  0.32272			 -0.62212
	124.25			  9.76159			  0.41766			 -0.62291
	124.50			  10.16035			  0.14310			 -0.39082
	124.75			  10.00192			  0.18482			 -0.43895
	125.00			  9.81824			  -0.11029			 -0.10024
	125.25			  9.79610			  -0.23339			 -0.03510
	125.50			  9.99379			  -0.19414			 0.18386
	125.75			  9.87925			  -0.36348			 0.04961
	126.00			  9.99917			  -0.22764			 -0.19409
	126.25			  9.99504			  -0.01802			 -0.42218
	126.50			  9.93290			  -0.24326			 -0.34236
	126.75			  9.96366			  -0.45288			 -0.36766
	127.00			  10.04568			  -0.75909			 -0.20424
	127.25			  9.98029			  -0.29751			 0.01667
	127.50			  9.80961			  0.04240			 -0.06925
	127.75			  9.55353			  -0.08666			 -0.09176
	128.00			  9.41623			  -0.12488			 -0.18262
	128.25			  9.62167			  -0.36081			 0.06625
	128.50			  9.85912			  -0.38732			 -0.09381
	128.75			  9.86275			  -0.43520			 -0.03631
	129.00			  10.00242			  -0.21407			 0.01653
	129.25			  10.30977			  -0.32998			 0.20636
	129.50			  10.20536			  -0.21736			 0.16238
	129.75			  10.21724			  -0.29957			 0.35179
	130.00			  10.17623			  -0.26689			 0.39624
	130.25			  10.00692			  -0.06446			 0.04029
	130.50			  9.76772			  -0.05748			 0.20608
	130.75			  9.77835			  0.12276			 0.13237
	131.00			  10.00042			  0.15214			 0.06452
	131.25			  9.98841			  0.24709			 -0.04200
	131.50			  10.22962			  0.00973			 -0.04936
	131.75			  10.28439			  0.04816			 -0.03314
	132.00			  10.18573			  -0.00486			 -0.17167
	132.25			  10.11633			  -0.08686			 -0.36929
	132.50			  9.96678			  0.14619			 -0.08654
	132.75			  10.28201			  -0.00569			 -0.33327
	133.00			  10.27938			  -0.17873			 -0.38727
	133.25			  10.13446			  0.05617			 -0.65478
	133.50			  10.15522			  0.13344			 -0.45950
	133.75			  10.02880			  -0.19476			 -0.55511
	134.00			  9.81523			  -0.34889			 -0.38448
	134.25			  9.90939			  -0.60331			 -0.02788
	134.50			  10.03718			  -0.56693			 0.00637
	134.75			  10.04831			  -0.52439			 0.01350
	135.00			  10.26525			  -0.65900			 0.03605
	135.25			  10.21124			  -0.48021			 -0.20960
	135.50			  10.15597			  -0.33183			 -0.33709
	135.75			  10.48983			  -0.45596			 -0.10075
	136.00			  10.49433			  -0.45493			 -0.29026
	136.25			  10.55735			  -0.52768			 -0.24488
	136.50			  10.37867			  -0.48966			 -0.24977
	136.75			  10.46407			  -0.53837			 -0.35270
	137.00			  10.79855			  -0.64749			 -0.12862
	137.25			  10.95910			  -0.86657			 -0.06651
	137.50			  10.69677			  -0.70607			 0.18125
	137.75			  10.78217			  -0.43479			 0.50425
	138.00			  10.95360			  -0.91877			 0.47504
	138.25			  10.75404			  -0.91815			 0.43012
	138.50			  10.53384			  -0.91055			 0.16592
	138.75			  10.67338			  -0.68058			 0.03549
	139.00			  10.68739			  -0.49809			 0.05427
	139.25			  10.45819			  -0.38691			 -0.22456
	139.50			  10.59523			  -0.28847			 -0.20513
	139.75			  10.54322			  -0.04165			 -0.06683
	140.00			  10.36078			  0.33587			 0.10348
	140.25			  10.36504			  0.45794			 -0.16044
	140.50			  10.18185			  0.50336			 -0.07354
	140.75			  10.36041			  0.51343			 0.08740
	141.00			  10.44344			  -0.10002			 -0.11315
	141.25			  10.14672			  -0.24757			 0.18595
	141.50			  10.27201			  0.10878			 0.19565
	141.75			  10.28326			  0.19818			 0.07487
	142.00			  10.17347			  -0.01473			 0.30533
	142.25			  10.27226			  -0.07577			 0.32029
	142.50			  10.33828			  -0.39451			 0.26489
	142.75			  10.20674			  -0.48535			 0.17309
	143.00			  10.17085			  -0.31930			 0.20618
	143.25			  10.27176			  -0.01411			 0.14229
	143.50			  10.10845			  -0.03261			 -0.01012
	143.75			  9.82311			  0.05617			 0.00735
	144.00			  9.80836			  -0.08563			 0.28236
	144.25			  9.80936			  -0.08049			 0.54242
	144.50			  9.85462			  -0.02151			 0.56110
	144.75			  9.84374			  -0.19167			 0.56306
	145.00			  9.80123			  -0.02295			 0.60197
	145.25			  9.76509			  0.42835			 0.86239
	145.50			  9.99817			  0.43369			 0.98722
	145.75			  9.77335			  0.26168			 0.76981
	146.00			  9.65043			  0.19222			 0.73225
	146.25			  9.92314			  0.16078			 0.70336
	146.50			  9.91714			  0.25860			 0.54037
	146.75			  9.78873			  0.26415			 0.31549
	147.00			  9.74221			  0.09933			 0.17188
	147.25			  9.63180			  -0.16537			 0.14910
	147.50			  9.70457			  -0.07412			 -0.06627
	147.75			  9.85950			  -0.02336			 -0.13463
	148.00			  9.78698			  0.11762			 -0.02806
	148.25			  9.91452			  -0.02418			 0.07920
	148.50			  9.87025			  -0.12879			 0.09532
	148.75			  9.94690			  -0.08625			 0.04183
	149.00			  10.16335			  -0.27614			 0.20343
	149.25			  10.22637			  -0.20503			 0.04379
	149.50			  10.29576			  -0.11255			 0.08153
	149.75			  10.14422			  -0.30964			 -0.24064
	150.00			  9.94278			  0.00890			 -0.49393
	150.25			  9.97691			  -0.06138			 -0.35582
	150.50			  10.01705			  -0.01309			 -0.44836
	150.75			  10.07107			  -0.08255			 -0.12927
	151.00			  10.10345			  0.21688			 -0.02685
	151.25			  10.28564			  0.09871			 -0.06240
	151.50			  10.37304			  -0.09591			 -0.20210
	151.75			  10.18148			  -0.20072			 -0.01632
	152.00			  10.24637			  -0.14811			 -0.00770
	152.25			  10.18485			  -0.17194			 0.00497
	152.50			  10.20161			  -0.14543			 0.19760
	152.75			  10.08645			  -0.40438			 0.30799
	153.00			  10.08745			  -0.49973			 0.29965
	153.25			  10.17210			  -0.36286			 0.46045
	153.50			  10.21624			  -0.03117			 0.53962
	153.75			  9.94052			  -0.03672			 0.13870
	154.00			  9.87550			  0.18030			 -0.03421
	154.25			  9.70132			  0.16797			 -0.22395
	154.50			  9.67982			  0.16653			 -0.02573
	154.75			  9.89901			  0.26168			 -0.03366
	155.00			  9.73971			  0.79395			 0.07669
	155.25			  10.01292			  0.67846			 0.33795
	155.50			  10.05931			  0.59255			 0.36982
	155.75			  10.23524			  0.27607			 0.42201
	156.00			  10.72165			  -0.01370			 0.18195
	156.25			  10.75779			  0.13180			 0.13875
	156.50			  10.64925			  0.28655			 0.16275
	156.75			  10.66276			  0.00027			 0.25850
	157.00			  10.69064			  0.03911			 0.53347
	157.25			  10.49958			  -0.01699			 0.29033
	157.50			  10.44869			  0.24298			 0.43976
	157.75			  10.17297			  0.17105			 0.18134
	158.00			  10.10208			  0.05802			 0.28646
	158.25			  10.12546			  -0.43171			 0.13498
	158.50			  10.25863			  -0.60639			 -0.11613
	158.75			  10.16985			  -0.34334			 -0.17405
	159.00			  10.05981			  0.28162			 -0.13854
	159.25			  9.95728			  0.27216			 -0.44822
	159.50			  10.19986			  0.37060			 -0.23835
	159.75			  10.20649			  0.36485			 -0.30485
	160.00			  10.12221			  0.27833			 -0.26226
	160.25			  10.27901			  0.25202			 -0.22134
	160.50			  10.30152			  0.29765			 0.12058
	160.75			  10.09557			  0.24175			 -0.41770
	161.00			  10.33615			  0.12543			 -0.21631
	161.25			  10.18310			  0.32929			 -0.23821
	161.50			  9.99942			  0.12769			 -0.20988
	161.75			  10.05994			  0.09501			 0.17822
	162.00			  10.04931			  0.21894			 0.12300
	162.25			  10.01905			  0.08248			 0.10609
	162.50			  9.79373			  -0.24696			 -0.26841
	162.75			  9.53302			  -0.26895			 -0.17018
	163.00			  10.01080			  -0.09776			 -0.13519
	163.25			  9.97078			  -0.25682			 -0.25065
	163.50			  10.05331			  -0.21757			 -0.05765
	163.75			  9.88113			  -0.33019			 -0.13798
	164.00			  9.75359			  -0.40088			 0.03731
	164.25			  9.89251			  -0.43048			 -0.25783
	164.50			  10.24000			  -0.37149			 -0.14651
	164.75			  10.14434			  -0.45185			 -0.01627
	165.00			  10.06544			  -0.35649			 -0.07764
	165.25			  10.03205			  -0.34416			 -0.21207
	165.50			  10.30502			  -0.28498			 -0.27386
	165.75			  10.19436			  -0.26812			 -0.20560