--------------TurbSim v2.00.* User Time Series Input File-----------------------
     Time series input from low-res turbsim run
--------------------------------------------------------------------------------
          3 nComp - Number of velocity components in the file
          1 nPoints - Number of time series points contained in this file (-)
          1 RefPtID - Index of the reference point (1-nPoints)
     Pointyi Pointzi ! nPoints listed in order of increasing height
       (m)     (m)
       3.19568   94.00000
--------Time Series-------------------------------------------------------------
Elapsed Time         Point01u             Point01v           Point01w
         (s)            (m/s)                (m/s)              (m/s)
	0.00			  10.14108			  0.03748			 0.14890
	0.25			  9.98790			  0.09733			 0.06233
	0.50			  9.91949			  0.14476			 0.16581
	0.75			  10.03875			  0.05848			 0.12526
	1.00			  10.12908			  0.08298			 0.06620
	1.25			  9.99473			  0.08788			 -0.09397
	1.50			  10.01174			  0.18414			 0.05612
	1.75			  9.93411			  0.21600			 0.08327
	2.00			  9.96764			  0.29773			 0.06293
	2.25			  9.98655			  0.29370			 0.08430
	2.50			  10.09897			  0.26080			 0.11754
	2.75			  10.06997			  0.27550			 0.17958
	3.00			  10.03811			  0.20585			 0.04799
	3.25			  10.00212			  0.23367			 -0.01340
	3.50			  10.00681			  0.13916			 -0.09610
	3.75			  10.09325			  0.06933			 -0.03922
	4.00			  10.13878			  0.11554			 -0.09338
	4.25			  10.02381			  0.18449			 -0.05260
	4.50			  9.92942			  0.07861			 -0.05024
	4.75			  10.00808			  0.10941			 -0.10034
	5.00			  9.98536			  0.14861			 0.01351
	5.25			  10.02167			  0.12219			 -0.10866
	5.50			  10.03120			  0.17732			 -0.18870
	5.75			  9.98170			  0.11326			 -0.14792
	6.00			  9.96796			  0.05323			 -0.16817
	6.25			  9.82169			  0.07476			 -0.23878
	6.50			  9.93483			  0.13479			 -0.30535
	6.75			  10.08737			  0.10416			 -0.16657
	7.00			  10.05488			  -0.00505			 -0.07352
	7.25			  10.09714			  -0.17027			 -0.09409
	7.50			  10.02079			  -0.15032			 -0.12550
	7.75			  10.09691			  -0.14419			 -0.15853
	8.00			  10.11748			  -0.21648			 -0.09649
	8.25			  9.92950			  -0.18410			 -0.22437
	8.50			  9.80508			  -0.25778			 -0.16329
	8.75			  9.91266			  -0.33479			 -0.29607
	9.00			  10.10056			  -0.42457			 -0.25910
	9.25			  9.99449			  -0.45503			 -0.34120
	9.50			  9.87333			  -0.46238			 -0.42163
	9.75			  9.83710			  -0.52118			 -0.37117
	10.00			  9.88628			  -0.52924			 -0.26588
	10.25			  10.00284			  -0.49686			 -0.27649
	10.50			  10.09548			  -0.33514			 -0.26059
	10.75			  10.12710			  -0.18375			 -0.24414
	11.00			  10.14545			  -0.23065			 -0.27151
	11.25			  10.09389			  -0.17132			 -0.26377
	11.50			  10.10882			  -0.19652			 -0.17404
	11.75			  10.13377			  -0.21158			 -0.22950
	12.00			  10.03200			  -0.30731			 -0.13741
	12.25			  9.94404			  -0.34266			 -0.19855
	12.50			  10.00085			  -0.34196			 -0.03379
	12.75			  9.94666			  -0.44593			 -0.09271
	13.00			  9.88295			  -0.33706			 -0.06754
	13.25			  9.89216			  -0.39202			 -0.15926
	13.50			  9.96518			  -0.44750			 -0.02534
	13.75			  10.05980			  -0.44435			 -0.13161
	14.00			  10.13345			  -0.44103			 -0.07306
	14.25			  10.18708			  -0.44768			 -0.06534
	14.50			  10.08181			  -0.62235			 0.05741
	14.75			  10.03692			  -0.55006			 0.01189
	15.00			  10.00506			  -0.40900			 0.05127
	15.25			  10.05750			  -0.30101			 -0.00147
	15.50			  10.07665			  -0.29786			 -0.04172
	15.75			  10.03287			  -0.23328			 0.02385
	16.00			  10.05376			  -0.26233			 0.08018
	16.25			  10.04765			  -0.24658			 0.11443
	16.50			  10.15387			  -0.28351			 0.08957
	16.75			  10.11613			  -0.36384			 0.11037
	17.00			  10.13186			  -0.46448			 0.03770
	17.25			  10.05543			  -0.43122			 0.11740
	17.50			  10.04352			  -0.43648			 0.22045
	17.75			  10.11995			  -0.45398			 0.07816
	18.00			  10.11868			  -0.47865			 -0.01792
	18.25			  10.08650			  -0.53799			 -0.06305
	18.50			  9.94968			  -0.50386			 0.06222
	18.75			  9.87286			  -0.32604			 0.02032
	19.00			  9.88589			  -0.51593			 0.02291
	19.25			  9.93324			  -0.45380			 -0.03899
	19.50			  9.88962			  -0.52013			 -0.25106
	19.75			  9.89423			  -0.39132			 -0.28563
	20.00			  9.85498			  -0.35824			 -0.33912
	20.25			  9.92283			  -0.32499			 -0.29206
	20.50			  10.01293			  -0.37994			 -0.22100
	20.75			  10.01817			  -0.48968			 -0.17470
	21.00			  9.93705			  -0.44365			 -0.16313
	21.25			  9.98885			  -0.46360			 -0.01840
	21.50			  9.87516			  -0.40235			 -0.13145
	21.75			  9.88469			  -0.59627			 -0.11262
	22.00			  9.94206			  -0.60572			 -0.03191
	22.25			  10.01118			  -0.50648			 -0.21729
	22.50			  9.85379			  -0.57947			 -0.21323
	22.75			  9.89312			  -0.60397			 -0.24593
	23.00			  9.77823			  -0.54691			 -0.31953
	23.25			  9.84052			  -0.68465			 -0.24315
	23.50			  9.80079			  -0.63740			 -0.17754
	23.75			  9.85156			  -0.59399			 -0.15239
	24.00			  9.81938			  -0.70793			 -0.27868
	24.25			  9.73993			  -0.78056			 -0.23743
	24.50			  9.67828			  -0.65927			 -0.26847
	24.75			  9.75805			  -0.69113			 -0.27793
	25.00			  9.70283			  -0.72701			 -0.10671
	25.25			  9.81406			  -0.59907			 -0.06105
	25.50			  9.99251			  -0.46798			 -0.09471
	25.75			  9.86555			  -0.47008			 -0.08490
	26.00			  9.74875			  -0.45783			 0.03938
	26.25			  9.74716			  -0.43385			 -0.01574
	26.50			  9.84672			  -0.38152			 -0.00759
	26.75			  9.81168			  -0.41057			 -0.04667
	27.00			  9.94079			  -0.63057			 -0.26588
	27.25			  9.88763			  -0.65087			 -0.16691
	27.50			  9.87436			  -0.48408			 -0.02848
	27.75			  9.86038			  -0.29541			 -0.19605
	28.00			  9.66271			  -0.38939			 -0.22160
	28.25			  9.63180			  -0.30626			 -0.13541
	28.50			  9.68646			  -0.37504			 -0.01860
	28.75			  9.72619			  -0.38747			 0.04820
	29.00			  9.69266			  -0.35089			 0.05734
	29.25			  9.66310			  -0.26811			 0.17266
	29.50			  9.61686			  -0.34442			 0.26496
	29.75			  9.59144			  -0.30556			 0.14416
	30.00			  9.56324			  -0.17377			 0.21312
	30.25			  9.53487			  -0.11899			 0.37732
	30.50			  9.55791			  -0.04163			 0.37941
	30.75			  9.56069			  0.11221			 0.25971
	31.00			  9.56586			  0.05568			 0.22313
	31.25			  9.62513			  -0.05231			 0.06843
	31.50			  9.70100			  -0.03131			 0.10350
	31.75			  9.70410			  -0.09029			 0.13497
	32.00			  9.79404			  -0.16397			 0.10483
	32.25			  9.70061			  -0.15207			 -0.00852
	32.50			  9.53551			  -0.22260			 -0.05535
	32.75			  9.63776			  -0.19617			 0.01310
	33.00			  9.64928			  -0.29611			 0.13772
	33.25			  9.51302			  -0.21140			 0.10675
	33.50			  9.53940			  -0.09834			 0.00653
	33.75			  9.59216			  -0.23293			 -0.03732
	34.00			  9.66120			  -0.30381			 -0.08128
	34.25			  9.58969			  -0.39780			 0.01603
	34.50			  9.47083			  -0.46500			 0.07445
	34.75			  9.47377			  -0.41722			 0.04765
	35.00			  9.51715			  -0.40812			 0.07745
	35.25			  9.67081			  -0.35457			 -0.06509
	35.50			  9.71332			  -0.34459			 -0.11613
	35.75			  9.70863			  -0.22278			 -0.12451
	36.00			  9.78276			  -0.19407			 -0.03576
	36.25			  9.79094			  -0.17342			 0.08529
	36.50			  9.78578			  -0.10604			 0.12221
	36.75			  9.86126			  0.04728			 0.03892
	37.00			  9.83218			  -0.06631			 -0.06048
	37.25			  9.77664			  -0.17307			 -0.06392
	37.50			  9.76011			  -0.10691			 -0.01689
	37.75			  9.83893			  -0.13422			 0.03475
	38.00			  9.86713			  -0.15854			 0.07204
	38.25			  9.91894			  -0.02133			 0.08412
	38.50			  9.99934			  -0.08399			 0.03406
	38.75			  10.01928			  -0.12004			 -0.11739
	39.00			  9.88247			  -0.20352			 -0.16236
	39.25			  9.72865			  -0.09659			 -0.26340
	39.50			  9.62441			  -0.08399			 -0.25584
	39.75			  9.70204			  -0.03008			 -0.22334
	40.00			  9.65937			  -0.07419			 -0.14181
	40.25			  9.65786			  -0.10499			 -0.13159
	40.50			  9.59653			  -0.04093			 -0.20419
	40.75			  9.57698			  -0.06666			 -0.17789
	41.00			  9.57714			  0.01227			 -0.27268
	41.25			  9.57070			  -0.02378			 -0.18215
	41.50			  9.55823			  -0.05178			 -0.20162
	41.75			  9.58040			  -0.06788			 -0.15945
	42.00			  9.61790			  -0.13387			 -0.09803
	42.25			  9.59867			  -0.03901			 -0.02080
	42.50			  9.64404			  -0.04058			 -0.14375
	42.75			  9.71856			  -0.07436			 -0.13379
	43.00			  9.76925			  -0.05703			 -0.15021
	43.25			  9.74399			  -0.09886			 -0.03640
	43.50			  9.86102			  -0.22015			 -0.06639
	43.75			  9.86229			  -0.08714			 -0.12440
	44.00			  9.82423			  0.02172			 -0.14811
	44.25			  9.77227			  -0.03218			 -0.08263
	44.50			  9.77902			  -0.22908			 -0.10346
	44.75			  9.69647			  -0.28841			 -0.17605
	45.00			  9.68138			  -0.41915			 -0.15754
	45.25			  9.65969			  -0.51243			 -0.19133
	45.50			  9.67741			  -0.50631			 -0.11074
	45.75			  9.55505			  -0.45695			 -0.06206
	46.00			  9.60129			  -0.30171			 0.02119
	46.25			  9.74057			  -0.23048			 0.02971
	46.50			  9.70958			  -0.18742			 0.11591
	46.75			  9.75225			  -0.26758			 0.02531
	47.00			  9.71157			  -0.32289			 -0.13344
	47.25			  9.72754			  -0.38729			 -0.05551
	47.50			  9.58993			  -0.29016			 0.02543
	47.75			  9.76583			  -0.25498			 0.04840
	48.00			  9.89176			  -0.24990			 0.01102
	48.25			  9.85029			  -0.28508			 -0.10041
	48.50			  9.89685			  -0.36647			 0.11548
	48.75			  9.85458			  -0.38974			 0.04185
	49.00			  9.81200			  -0.34091			 0.10238
	49.25			  9.69663			  -0.18637			 0.26491
	49.50			  9.63998			  -0.17815			 0.22056
	49.75			  9.70275			  -0.13999			 0.22643
	50.00			  9.71070			  -0.20002			 0.18689
	50.25			  9.80055			  -0.32586			 0.18111
	50.50			  9.66438			  -0.34582			 0.20462
	50.75			  9.53837			  -0.37784			 0.12819
	51.00			  9.66009			  -0.38694			 0.14929
	51.25			  9.58922			  -0.43490			 0.25543
	51.50			  9.75702			  -0.41075			 0.28315
	51.75			  9.95946			  -0.51138			 0.35551
	52.00			  9.94945			  -0.43227			 0.34871
	52.25			  9.94047			  -0.55794			 0.32702
	52.50			  9.76393			  -0.50666			 0.29263
	52.75			  9.67637			  -0.46150			 0.13048
	53.00			  9.66334			  -0.51278			 0.16295
	53.25			  9.72524			  -0.44820			 0.16004
	53.50			  9.78403			  -0.47883			 0.11186
	53.75			  9.81724			  -0.33426			 0.09750
	54.00			  9.86372			  -0.19162			 0.13003
	54.25			  9.86499			  -0.28001			 0.01207
	54.50			  9.85681			  -0.19512			 -0.07306
	54.75			  9.70370			  -0.15504			 -0.09908
	55.00			  9.79475			  -0.25796			 -0.09132
	55.25			  9.78252			  -0.37469			 -0.12719
	55.50			  9.68567			  -0.30119			 -0.14465
	55.75			  9.71252			  -0.37067			 -0.25717
	56.00			  9.76258			  -0.29348			 -0.18476
	56.25			  9.71626			  -0.14769			 0.02068
	56.50			  9.84100			  -0.16170			 -0.03748
	56.75			  9.74510			  -0.27301			 -0.03400
	57.00			  9.87985			  -0.34039			 -0.07427
	57.25			  9.98504			  -0.31974			 0.02107
	57.50			  9.83202			  -0.21595			 0.03695
	57.75			  9.74804			  -0.16520			 0.03995
	58.00			  9.86070			  -0.06421			 0.09234
	58.25			  9.88898			  -0.15102			 0.05532
	58.50			  9.74756			  -0.22085			 0.09550
	58.75			  9.65309			  -0.15889			 0.09947
	59.00			  9.62505			  0.04938			 0.03319
	59.25			  9.48855			  -0.04268			 -0.03977
	59.50			  9.45915			  -0.18532			 -0.07352
	59.75			  9.56093			  -0.19705			 -0.01352
	60.00			  9.59660			  -0.20387			 -0.05288
	60.25			  9.47735			  -0.22120			 -0.06417
	60.50			  9.48482			  -0.25235			 -0.05741
	60.75			  9.29469			  -0.32814			 0.15115
	61.00			  9.25814			  -0.25638			 0.18081
	61.25			  9.40084			  -0.45923			 0.02025
	61.50			  9.49967			  -0.35037			 0.05470
	61.75			  9.45089			  -0.43157			 0.12959
	62.00			  9.50126			  -0.57264			 0.12522
	62.25			  9.45161			  -0.52801			 0.13891
	62.50			  9.36421			  -0.57894			 0.14116
	62.75			  9.51564			  -0.56004			 0.09546
	63.00			  9.36397			  -0.51068			 0.14166
	63.25			  9.33545			  -0.35334			 0.00882
	63.50			  9.22978			  -0.15697			 -0.01272
	63.75			  9.24488			  -0.16345			 0.00055
	64.00			  9.33211			  -0.13614			 0.03195
	64.25			  9.37335			  -0.03708			 -0.03565
	64.50			  9.39806			  -0.03131			 -0.04797
	64.75			  9.39210			  -0.14804			 -0.02094
	65.00			  9.38709			  -0.15049			 0.07138
	65.25			  9.46154			  -0.20352			 0.13406
	65.50			  9.41848			  -0.32884			 0.17988
	65.75			  9.45947			  -0.32831			 0.15988
	66.00			  9.47179			  -0.24920			 0.14281
	66.25			  9.49348			  -0.30574			 0.15170
	66.50			  9.51628			  -0.50053			 0.15687
	66.75			  9.37422			  -0.29716			 0.09488
	67.00			  9.51509			  -0.38659			 0.15976
	67.25			  9.56586			  -0.39115			 0.04687
	67.50			  9.69814			  -0.41215			 0.21002
	67.75			  9.63784			  -0.42107			 0.13186
	68.00			  9.54274			  -0.28753			 0.18918
	68.25			  9.52748			  -0.27493			 0.13910
	68.50			  9.52017			  -0.28526			 0.26837
	68.75			  9.49403			  -0.31659			 0.13580
	69.00			  9.59009			  -0.33146			 0.15085
	69.25			  9.62584			  -0.37609			 -0.04729
	69.50			  9.52502			  -0.30014			 -0.02671
	69.75			  9.46321			  -0.39360			 0.02080
	70.00			  9.44271			  -0.47340			 0.18693
	70.25			  9.36135			  -0.49773			 0.28869
	70.50			  9.54591			  -0.50123			 0.26416
	70.75			  9.58707			  -0.52171			 0.20001
	71.00			  9.55124			  -0.65350			 0.12812
	71.25			  9.42984			  -0.58349			 0.14040
	71.50			  9.48212			  -0.49073			 0.01814
	71.75			  9.51644			  -0.31746			 0.19605
	72.00			  9.41490			  -0.34704			 0.29593
	72.25			  9.45089			  -0.30224			 0.27320
	72.50			  9.48108			  -0.27511			 0.22056
	72.75			  9.42594			  -0.29979			 0.08545
	73.00			  9.43151			  -0.42457			 0.09706
	73.25			  9.53654			  -0.40445			 0.11142
	73.50			  9.53114			  -0.59399			 0.17064
	73.75			  9.54901			  -0.52031			 0.26695
	74.00			  9.60034			  -0.54814			 0.36869
	74.25			  9.58953			  -0.56354			 0.33380
	74.50			  9.65119			  -0.44978			 0.19115
	74.75			  9.60193			  -0.43105			 0.13248
	75.00			  9.61814			  -0.38414			 0.13722
	75.25			  9.71030			  -0.48531			 0.18439
	75.50			  9.72079			  -0.37487			 0.26432
	75.75			  9.71213			  -0.26583			 0.25442
	76.00			  9.76949			  -0.23888			 0.24461
	76.25			  9.73644			  -0.18550			 0.12121
	76.50			  9.66533			  -0.34424			 0.00847
	76.75			  9.61432			  -0.35159			 -0.04806
	77.00			  9.80032			  -0.28018			 -0.00289
	77.25			  9.78292			  -0.25183			 0.06215
	77.50			  9.75940			  -0.26461			 0.04481
	77.75			  9.74089			  -0.24308			 0.09850
	78.00			  9.77465			  -0.41022			 0.10874
	78.25			  9.67518			  -0.36594			 0.06508
	78.50			  9.78594			  -0.35474			 0.09108
	78.75			  9.67304			  -0.50823			 0.18033
	79.00			  9.70553			  -0.60327			 0.25023
	79.25			  9.64523			  -0.49966			 0.27815
	79.50			  9.72102			  -0.51278			 0.22576
	79.75			  9.74065			  -0.56074			 0.23389
	80.00			  9.74605			  -0.45800			 0.18185
	80.25			  9.77251			  -0.28018			 0.10918
	80.50			  9.86491			  -0.37627			 0.18141
	80.75			  9.96756			  -0.29558			 0.24995
	81.00			  10.01483			  -0.08276			 0.28106
	81.25			  10.15999			  -0.04111			 0.17044
	81.50			  10.16214			  0.00212			 0.28530
	81.75			  10.14354			  -0.13212			 0.21889
	82.00			  10.18605			  -0.24080			 0.21334
	82.25			  10.04820			  -0.20142			 0.26301
	82.50			  10.08841			  -0.23205			 0.22232
	82.75			  10.14839			  -0.22523			 0.32997
	83.00			  10.17111			  -0.14787			 0.36665
	83.25			  10.18343			  -0.00313			 0.44335
	83.50			  10.19519			  0.01875			 0.44380
	83.75			  10.06004			  0.01542			 0.36126
	84.00			  9.96986			  0.05428			 0.45773
	84.25			  10.00983			  0.01892			 0.41313
	84.50			  9.94523			  0.12499			 0.41444
	84.75			  9.88382			  0.08963			 0.37299
	85.00			  9.84513			  0.05725			 0.25293
	85.25			  9.83567			  0.25520			 0.23305
	85.50			  9.76901			  0.32538			 0.10517
	85.75			  9.80381			  0.16612			 0.16187
	86.00			  9.72579			  0.18729			 0.26131
	86.25			  9.70219			  0.35636			 0.08382
	86.50			  9.78006			  0.32416			 -0.08850
	86.75			  9.81549			  0.42007			 -0.10330
	87.00			  9.95437			  0.39242			 0.05546
	87.25			  10.05805			  0.21285			 -0.00403
	87.50			  10.10954			  0.20217			 0.02023
	87.75			  10.19121			  0.20462			 0.02297
	88.00			  10.24913			  0.21950			 0.08274
	88.25			  10.16023			  0.16139			 0.13850
	88.50			  10.20726			  0.07336			 -0.01854
	88.75			  10.15880			  0.08263			 0.05722
	89.00			  10.03009			  0.22597			 -0.06754
	89.25			  9.96263			  0.29475			 -0.18267
	89.50			  10.01332			  0.21267			 -0.04179
	89.75			  10.04757			  0.09751			 -0.06541
	90.00			  10.07800			  0.08771			 -0.28246
	90.25			  10.11224			  0.20847			 -0.25399
	90.50			  9.99386			  0.31016			 -0.13619
	90.75			  9.94150			  0.12849			 -0.10774
	91.00			  9.88668			  0.26273			 -0.09184
	91.25			  9.67240			  0.16664			 0.08176
	91.50			  9.65206			  0.10223			 0.06405
	91.75			  9.69687			  0.08613			 0.10469
	92.00			  9.70990			  0.22755			 0.03301
	92.25			  9.76687			  0.13234			 0.04357
	92.50			  9.69894			  0.04623			 0.13511
	92.75			  9.72857			  0.04990			 0.21706
	93.00			  9.77394			  0.09681			 0.10636
	93.25			  9.68043			  0.11046			 0.09188
	93.50			  9.72921			  0.04080			 0.02575
	93.75			  9.62783			  0.19272			 0.04110
	94.00			  9.62505			  0.08228			 -0.01691
	94.25			  9.69894			  0.16104			 0.06082
	94.50			  9.63792			  0.22597			 0.02985
	94.75			  9.54560			  0.21040			 0.04969
	95.00			  9.67780			  0.15631			 0.03179
	95.25			  9.73135			  0.15299			 0.00914
	95.50			  9.73874			  -0.07034			 -0.04057
	95.75			  9.83019			  -0.00365			 0.02421
	96.00			  9.83845			  -0.00715			 0.07690
	96.25			  9.87278			  0.02330			 0.14011
	96.50			  9.78935			  0.10573			 0.07044
	96.75			  9.84258			  0.13479			 0.03929
	97.00			  9.78967			  0.22545			 0.00364
	97.25			  9.89176			  0.19412			 0.05411
	97.50			  10.00204			  0.05008			 0.18345
	97.75			  9.95318			  0.00247			 0.10054
	98.00			  9.87516			  0.01507			 0.08803
	98.25			  9.84942			  -0.05231			 0.14146
	98.50			  9.73485			  -0.12372			 0.19536
	98.75			  9.62243			  -0.01573			 0.13463
	99.00			  9.78538			  0.05375			 -0.01008
	99.25			  9.75233			  0.10888			 0.17374
	99.50			  9.73771			  0.24680			 0.28292
	99.75			  9.77283			  0.30123			 0.24070
	100.00			  9.76250			  0.25538			 0.14324
	100.25			  9.72420			  0.20777			 0.14054
	100.50			  9.61734			  0.21547			 0.15511
	100.75			  9.54782			  0.29650			 0.14288
	101.00			  9.52669			  0.29108			 0.10606
	101.25			  9.47234			  0.33676			 0.10370
	101.50			  9.47719			  0.22982			 0.05786
	101.75			  9.53233			  0.30071			 0.15387
	102.00			  9.55036			  0.20935			 0.21053
	102.25			  9.61027			  0.07686			 0.10306
	102.50			  9.60526			  0.08333			 0.07919
	102.75			  9.49125			  0.16997			 0.10680
	103.00			  9.54258			  0.01752			 0.03963
	103.25			  9.39806			  -0.01328			 0.07147
	103.50			  9.34189			  -0.08364			 0.12567
	103.75			  9.53106			  -0.12774			 0.06389
	104.00			  9.52017			  -0.06613			 0.09999
	104.25			  9.50794			  -0.06141			 0.13133
	104.50			  9.57619			  -0.15014			 0.15678
	104.75			  9.62497			  -0.24395			 0.19960
	105.00			  9.72063			  -0.24483			 0.09427
	105.25			  9.72682			  -0.23013			 0.18285
	105.50			  9.69203			  -0.09466			 0.09633
	105.75			  9.69647			  -0.02536			 0.02701
	106.00			  9.60781			  0.10468			 0.05725
	106.25			  9.30264			  -0.01520			 -0.07533
	106.50			  9.26371			  -0.11969			 -0.12084
	106.75			  9.31797			  -0.15452			 -0.10914
	107.00			  9.28492			  -0.08539			 -0.10552
	107.25			  9.35968			  -0.09834			 -0.03796
	107.50			  9.45081			  -0.08889			 -0.01815
	107.75			  9.36445			  -0.02991			 0.16395
	108.00			  9.41681			  -0.10061			 0.13818
	108.25			  9.41538			  -0.25586			 0.18320
	108.50			  9.48744			  -0.31624			 0.26803
	108.75			  9.51247			  -0.30119			 0.26372
	109.00			  9.58763			  -0.31764			 0.30993
	109.25			  9.60805			  -0.27021			 0.38003
	109.50			  9.62227			  -0.34722			 0.33343
	109.75			  9.57730			  -0.26006			 0.19165
	110.00			  9.60805			  -0.27983			 0.12430
	110.25			  9.61067			  -0.31536			 0.15616
	110.50			  9.67486			  -0.29856			 0.14547
	110.75			  9.80024			  -0.30101			 0.12916
	111.00			  9.78292			  -0.24763			 0.14778
	111.25			  9.74128			  -0.13964			 0.12757
	111.50			  9.71721			  -0.14927			 -0.00376
	111.75			  9.64769			  -0.22715			 0.00194
	112.00			  9.66390			  -0.22523			 0.09896
	112.25			  9.65230			  -0.14647			 0.18249
	112.50			  9.68599			  -0.08224			 0.18368
	112.75			  9.85371			  -0.06578			 0.26148
	113.00			  9.90257			  -0.04706			 0.15282
	113.25			  9.82852			  -0.01468			 0.16246
	113.50			  9.85252			  -0.01573			 0.04591
	113.75			  9.65397			  0.09768			 0.01244
	114.00			  9.56625			  0.04815			 -0.06092
	114.25			  9.64515			  0.00947			 -0.00392
	114.50			  9.76703			  -0.00540			 -0.06318
	114.75			  9.71920			  0.15299			 0.05615
	115.00			  9.61051			  0.14336			 0.10123
	115.25			  9.71721			  0.06898			 0.00375
	115.50			  9.67574			  -0.05966			 0.07184
	115.75			  9.79984			  -0.03778			 0.11775
	116.00			  9.70466			  -0.01345			 0.13005
	116.25			  9.79126			  -0.04216			 0.12845
	116.50			  9.73048			  -0.02396			 0.01340
	116.75			  9.70323			  -0.06176			 -0.09491
	117.00			  9.67661			  -0.08329			 0.02314
	117.25			  9.76536			  -0.06298			 0.09216
	117.50			  9.68329			  0.05008			 0.17451
	117.75			  9.60908			  0.18257			 0.23348
	118.00			  9.66303			  0.11343			 0.30551
	118.25			  9.52216			  0.12919			 0.18762
	118.50			  9.50826			  0.27358			 0.17978
	118.75			  9.64880			  0.28670			 0.24645
	119.00			  9.65349			  0.21442			 0.20278
	119.25			  9.71753			  0.10923			 0.13518
	119.50			  9.72881			  0.22072			 0.10512
	119.75			  9.56625			  0.34919			 -0.02367
	120.00			  9.32059			  0.32713			 0.04052
	120.25			  9.31273			  0.45280			 0.04618
	120.50			  9.33370			  0.41937			 -0.10937
	120.75			  9.34061			  0.42427			 -0.06357
	121.00			  9.28953			  0.40694			 -0.04770
	121.25			  9.36485			  0.42357			 0.13245
	121.50			  9.31678			  0.43530			 0.00201
	121.75			  9.40052			  0.24680			 0.05853
	122.00			  9.36866			  0.09156			 0.16164
	122.25			  9.40163			  0.09681			 0.17413
	122.50			  9.31312			  0.12936			 0.15312
	122.75			  9.31058			  0.05165			 0.01200
	123.00			  9.52399			  -0.08854			 -0.10813
	123.25			  9.53249			  -0.10149			 -0.03185
	123.50			  9.50389			  -0.03148			 -0.15127
	123.75			  9.47640			  -0.12512			 -0.07917
	124.00			  9.49117			  -0.10009			 -0.00619
	124.25			  9.59907			  -0.23450			 -0.02584
	124.50			  9.65675			  -0.36489			 -0.03026
	124.75			  9.52279			  -0.22785			 -0.03283
	125.00			  9.40020			  -0.07436			 -0.07093
	125.25			  9.40878			  0.02172			 0.06027
	125.50			  9.45200			  -0.05878			 -0.08628
	125.75			  9.42221			  -0.15749			 -0.18284
	126.00			  9.48887			  -0.25376			 -0.00967
	126.25			  9.53630			  -0.30766			 0.00314
	126.50			  9.39305			  -0.37469			 -0.00976
	126.75			  9.43548			  -0.36752			 0.06522
	127.00			  9.41760			  -0.31361			 -0.00046
	127.25			  9.26736			  -0.34196			 -0.11924
	127.50			  9.17695			  -0.35054			 -0.11356
	127.75			  9.17655			  -0.26443			 -0.05553
	128.00			  9.29533			  -0.17640			 -0.06355
	128.25			  9.32131			  -0.24903			 0.08952
	128.50			  9.25552			  -0.15382			 0.09956
	128.75			  9.20896			  -0.09589			 0.13848
	129.00			  9.29398			  -0.12162			 0.09768
	129.25			  9.33434			  -0.03008			 -0.05785
	129.50			  9.18902			  -0.05458			 -0.12304
	129.75			  9.32997			  -0.20615			 -0.05975
	130.00			  9.39591			  -0.22890			 0.04396
	130.25			  9.33386			  -0.15854			 -0.08396
	130.50			  9.15271			  -0.24780			 -0.15683
	130.75			  9.20126			  -0.18445			 -0.10112
	131.00			  9.13341			  -0.04583			 -0.15532
	131.25			  9.12006			  0.06180			 -0.20160
	131.50			  9.19816			  0.09733			 -0.16508
	131.75			  9.26831			  0.08298			 -0.27761
	132.00			  9.30351			  0.06565			 -0.06247
	132.25			  9.30081			  -0.00575			 -0.15587
	132.50			  9.14119			  -0.10149			 -0.20929
	132.75			  9.09535			  -0.14524			 -0.23461
	133.00			  9.04307			  -0.15784			 -0.25976
	133.25			  9.01614			  -0.12039			 -0.22478
	133.50			  8.99532			  -0.03901			 -0.03388
	133.75			  8.98904			  -0.20860			 -0.05228
	134.00			  9.01590			  -0.21280			 -0.02211
	134.25			  9.05539			  -0.18585			 -0.01783
	134.50			  9.10886			  -0.24290			 0.08084
	134.75			  9.18521			  -0.18602			 0.09669
	135.00			  9.24051			  -0.06561			 0.11864
	135.25			  9.27777			  -0.11602			 0.00776
	135.50			  9.29517			  -0.11269			 -0.05370
	135.75			  9.27467			  -0.20510			 0.00327
	136.00			  9.23741			  -0.09134			 -0.03260
	136.25			  9.33926			  -0.06806			 -0.00202
	136.50			  9.35055			  -0.09046			 -0.06167
	136.75			  9.33092			  -0.01818			 -0.08021
	137.00			  9.39559			  0.01262			 -0.06712
	137.25			  9.46392			  -0.09081			 -0.05565
	137.50			  9.54155			  0.01892			 -0.09269
	137.75			  9.59200			  0.04885			 -0.18710
	138.00			  9.65929			  -0.05003			 -0.13537
	138.25			  9.74287			  0.06635			 -0.07423
	138.50			  9.61829			  -0.06421			 -0.08822
	138.75			  9.74271			  -0.20142			 -0.21294
	139.00			  9.69711			  -0.24150			 -0.31660
	139.25			  9.70362			  -0.24483			 -0.25607
	139.50			  9.90575			  -0.24255			 -0.38525
	139.75			  9.85347			  -0.24693			 -0.33543
	140.00			  9.84672			  -0.23223			 -0.26116
	140.25			  9.86841			  -0.14384			 -0.28001
	140.50			  9.91933			  -0.09834			 -0.22364
	140.75			  9.99012			  -0.06981			 -0.23264
	141.00			  9.90519			  -0.30364			 -0.17083
	141.25			  9.78109			  -0.28928			 -0.24920
	141.50			  9.73970			  -0.34704			 -0.20622
	141.75			  9.82558			  -0.27353			 -0.32972
	142.00			  9.83790			  -0.26653			 -0.30567
	142.25			  9.82518			  -0.13807			 -0.49760
	142.50			  9.56371			  -0.08154			 -0.51281
	142.75			  9.46917			  -0.10779			 -0.40127
	143.00			  9.52947			  -0.23555			 -0.22192
	143.25			  9.51787			  -0.28858			 -0.27358
	143.50			  9.50349			  -0.42772			 -0.31987
	143.75			  9.47211			  -0.34056			 -0.12265
	144.00			  9.53336			  -0.13562			 -0.02199
	144.25			  9.66906			  0.04080			 0.10082
	144.50			  9.78228			  0.05218			 0.03803
	144.75			  9.69091			  0.07283			 -0.07118
	145.00			  9.68106			  -0.02991			 0.10437
	145.25			  9.68122			  -0.07769			 0.14304
	145.50			  9.71427			  0.08613			 0.23767
	145.75			  9.77545			  0.17049			 0.07782
	146.00			  9.68146			  0.13706			 0.17133
	146.25			  9.69719			  -0.05161			 0.05239
	146.50			  9.57229			  0.09716			 0.17942
	146.75			  9.43762			  0.16857			 0.13724
	147.00			  9.53082			  0.07721			 0.19793
	147.25			  9.45685			  -0.09396			 0.24565
	147.50			  9.52979			  -0.06386			 0.13720
	147.75			  9.44684			  -0.12372			 0.18189
	148.00			  9.57484			  -0.09746			 0.04611
	148.25			  9.54448			  -0.14437			 -0.00646
	148.50			  9.51644			  -0.10184			 0.01024
	148.75			  9.56355			  -0.06823			 0.01454
	149.00			  9.62489			  -0.02378			 0.03205
	149.25			  9.69989			  0.02873			 -0.00083
	149.50			  9.66477			  0.07581			 -0.13837
	149.75			  9.76623			  -0.03988			 -0.04813
	150.00			  9.71737			  0.08193			 -0.01228
	150.25			  9.73334			  0.18222			 0.10109
	150.50			  9.76369			  0.04903			 0.13662
	150.75			  9.72206			  -0.15452			 0.05725
	151.00			  9.87866			  -0.28631			 -0.02651
	151.25			  9.88914			  -0.21350			 -0.00600
	151.50			  9.77704			  -0.26548			 0.05938
	151.75			  9.85156			  -0.15487			 0.03328
	152.00			  9.98202			  -0.10219			 -0.01246
	152.25			  9.87564			  -0.01013			 0.02614
	152.50			  9.80683			  0.01665			 0.14858
	152.75			  9.76957			  0.02838			 0.04678
	153.00			  9.72309			  -0.02518			 0.04946
	153.25			  9.69639			  -0.06964			 0.12308
	153.50			  9.67097			  -0.00733			 0.16700
	153.75			  9.76305			  0.02190			 0.00987
	154.00			  9.85013			  0.03993			 0.00034
	154.25			  9.82749			  -0.04776			 -0.02740
	154.50			  9.78141			  0.07371			 -0.00600
	154.75			  9.80667			  0.05043			 -0.02474
	155.00			  9.74875			  0.02102			 0.06554
	155.25			  9.64642			  0.06425			 0.03862
	155.50			  9.69163			  0.04360			 0.00016
	155.75			  9.78228			  0.13076			 0.16182
	156.00			  9.78061			  0.26255			 0.09839
	156.25			  9.70521			  0.05708			 0.09484
	156.50			  9.90678			  0.15561			 0.07147
	156.75			  9.90185			  0.30316			 0.15330
	157.00			  9.86491			  0.19377			 0.04426
	157.25			  10.00268			  0.23035			 0.00162
	157.50			  9.94643			  0.35601			 0.03686
	157.75			  9.94380			  0.38331			 -0.01581
	158.00			  9.85879			  0.32626			 -0.04096
	158.25			  9.70410			  0.25643			 -0.03778
	158.50			  9.77815			  0.13304			 -0.08797
	158.75			  9.61639			  0.04290			 -0.15308
	159.00			  9.60066			  0.07371			 -0.04083
	159.25			  9.54735			  0.01122			 -0.05533
	159.50			  9.58500			  0.05480			 -0.08286
	159.75			  9.58485			  0.01980			 -0.06916
	160.00			  9.61941			  0.02610			 -0.13835
	160.25			  9.59192			  0.13584			 -0.13415
	160.50			  9.67995			  0.12166			 0.00772
	160.75			  9.72659			  0.06600			 -0.03858
	161.00			  9.62584			  0.09786			 0.05140
	161.25			  9.62735			  0.17557			 0.03997
	161.50			  9.60884			  0.26448			 -0.15514
	161.75			  9.75892			  0.27165			 -0.12052
	162.00			  9.76734			  0.25835			 -0.16595
	162.25			  9.71372			  0.17627			 -0.22927
	162.50			  9.73342			  0.27655			 -0.12758
	162.75			  9.78308			  0.11203			 0.10567
	163.00			  9.74740			  -0.04216			 0.18794
	163.25			  9.73016			  -0.11934			 0.05225
	163.50			  9.78578			  -0.04828			 0.00511
	163.75			  9.78721			  0.00965			 -0.21752
	164.00			  9.78053			  0.02960			 -0.21243
	164.25			  9.84417			  -0.07051			 -0.32079
	164.50			  9.87540			  -0.11006			 -0.29855
	164.75			  9.86761			  -0.04198			 -0.24201
	165.00			  9.84235			  -0.01555			 -0.31907
	165.25			  9.71713			  0.00387			 -0.26847
	165.50			  9.71236			  0.12499			 -0.28519
	165.75			  9.77767			  0.02873			 -0.38235
	166.00			  9.64046			  0.03818			 -0.32019
	166.25			  9.66048			  0.08806			 -0.33925
	166.50			  9.67089			  0.20007			 -0.26283
	166.75			  9.70378			  0.30788			 -0.25131
	167.00			  9.77203			  0.29283			 -0.19986
	167.25			  9.75845			  0.21495			 -0.19138