--------------TurbSim v2.00.* User Time Series Input File-----------------------
     Time series input from low-res turbsim run
--------------------------------------------------------------------------------
          3 nComp - Number of velocity components in the file
          1 nPoints - Number of time series points contained in this file (-)
          1 RefPtID - Index of the reference point (1-nPoints)
     Pointyi Pointzi ! nPoints listed in order of increasing height
       (m)     (m)
       -0.83291   94.00000
--------Time Series-------------------------------------------------------------
Elapsed Time         Point01u             Point01v           Point01w
         (s)            (m/s)                (m/s)              (m/s)
	0.00			  10.27024			  0.46383			 -0.03215
	0.25			  10.17563			  0.34022			 0.06073
	0.50			  10.01983			  0.26131			 -0.01456
	0.75			  10.00602			  0.25597			 0.05810
	1.00			  9.81574			  0.15887			 -0.07104
	1.25			  9.72736			  0.30996			 -0.21956
	1.50			  9.64832			  0.24846			 -0.08831
	1.75			  9.67543			  0.32143			 -0.07315
	2.00			  9.78459			  0.47312			 -0.23507
	2.25			  9.85241			  0.35130			 -0.07231
	2.50			  9.76485			  0.49962			 -0.31148
	2.75			  9.88055			  0.43100			 -0.41813
	3.00			  9.98140			  0.69047			 -0.13820
	3.25			  9.79123			  0.75732			 -0.19299
	3.50			  9.83486			  0.58229			 -0.18550
	3.75			  10.03988			  0.44049			 -0.04902
	4.00			  10.05265			  0.25400			 0.02368
	4.25			  9.96946			  0.26052			 -0.02234
	4.50			  9.94287			  0.42645			 0.12171
	4.75			  9.92511			  0.45829			 -0.26295
	5.00			  9.86518			  0.22769			 -0.32923
	5.25			  9.81574			  0.20495			 -0.21752
	5.50			  10.01973			  0.34714			 -0.53893
	5.75			  10.11102			  0.51248			 -0.20855
	6.00			  9.81284			  0.55638			 -0.15686
	6.25			  9.87100			  0.74268			 -0.15228
	6.50			  9.81460			  0.61176			 -0.02617
	6.75			  9.74138			  0.47550			 0.09866
	7.00			  9.75841			  0.27812			 -0.16751
	7.25			  9.88855			  0.12149			 -0.12703
	7.50			  9.93321			  0.05128			 -0.19910
	7.75			  9.85054			  -0.11781			 -0.19790
	8.00			  9.86342			  -0.02783			 -0.17162
	8.25			  9.99937			  0.24569			 -0.08635
	8.50			  10.32197			  0.31926			 -0.23371
	8.75			  10.35281			  0.16184			 -0.26083
	9.00			  10.44909			  0.11694			 -0.08512
	9.25			  10.40848			  0.31629			 -0.18825
	9.50			  10.40963			  0.06414			 -0.02461
	9.75			  10.58619			  -0.19000			 0.08713
	10.00			  10.70428			  -0.30549			 -0.06525
	10.25			  10.68268			  -0.28868			 0.19374
	10.50			  10.63906			  -0.43543			 0.34281
	10.75			  10.54766			  -0.20997			 0.28351
	11.00			  10.47246			  -0.16527			 0.11836
	11.25			  10.53177			  -0.39409			 0.30333
	11.50			  10.63657			  -0.52086			 0.23621
	11.75			  10.66367			  -0.45501			 0.16582
	12.00			  10.64737			  -0.50860			 0.33835
	12.25			  10.78021			  -0.70222			 0.51550
	12.50			  10.64311			  -0.63557			 0.25364
	12.75			  10.50528			  -0.66741			 0.14935
	13.00			  10.52616			  -0.50326			 0.36726
	13.25			  10.30327			  -0.72397			 0.47730
	13.50			  10.36528			  -0.73623			 0.42078
	13.75			  10.18684			  -0.70340			 0.64647
	14.00			  9.95066			  -0.66464			 0.93897
	14.25			  9.95191			  -0.68165			 0.77370
	14.50			  10.07644			  -0.61381			 0.63754
	14.75			  10.24698			  -0.88318			 0.43103
	15.00			  10.40308			  -1.00738			 0.40575
	15.25			  10.52439			  -0.69767			 0.36204
	15.50			  10.55857			  -0.76096			 0.49676
	15.75			  10.50331			  -0.66365			 0.25663
	16.00			  10.64498			  -0.58296			 0.14795
	16.25			  10.56407			  -0.35830			 0.52452
	16.50			  10.52761			  -0.32448			 0.33205
	16.75			  10.43206			  -0.50188			 0.31179
	17.00			  10.39789			  -0.49634			 0.29683
	17.25			  10.25996			  -0.46667			 0.43833
	17.50			  10.30597			  -0.42791			 0.43522
	17.75			  10.44245			  -0.22263			 0.43167
	18.00			  10.27762			  -0.16013			 0.36483
	18.25			  10.21842			  -0.40339			 0.05555
	18.50			  10.08942			  -0.40893			 0.15242
	18.75			  10.41389			  -0.35711			 0.00187
	19.00			  10.22008			  -0.30905			 0.08023
	19.25			  10.40090			  -0.34406			 -0.00228
	19.50			  10.51796			  -0.27840			 -0.06513
	19.75			  10.52543			  -0.19019			 -0.04081
	20.00			  10.34824			  0.11121			 0.10137
	20.25			  10.22766			  -0.06026			 0.31661
	20.50			  10.07685			  -0.08023			 0.32802
	20.75			  10.16441			  -0.07371			 0.14058
	21.00			  10.28364			  -0.19810			 0.31785
	21.25			  10.20595			  -0.19593			 0.14321
	21.50			  10.02762			  -0.18307			 -0.03502
	21.75			  10.00945			  -0.10496			 -0.19866
	22.00			  9.92833			  -0.05096			 -0.05261
	22.25			  9.94744			  -0.05967			 -0.22067
	22.50			  9.86425			  -0.22698			 -0.07686
	22.75			  9.86498			  -0.19237			 -0.24823
	23.00			  9.85750			  -0.33990			 -0.45992
	23.25			  9.88699			  -0.32567			 -0.39368
	23.50			  10.06283			  -0.35533			 -0.42770
	23.75			  9.67377			  -0.24695			 -0.44022
	24.00			  9.84410			  -0.44551			 -0.23304
	24.25			  10.14353			  -0.42712			 -0.32468
	24.50			  10.20014			  -0.32982			 -0.29226
	24.75			  10.19121			  -0.14194			 -0.38993
	25.00			  10.33422			  -0.01853			 -0.24017
	25.25			  10.28832			  -0.17141			 0.01949
	25.50			  10.11767			  -0.39152			 -0.26546
	25.75			  10.21717			  -0.51790			 -0.37797
	26.00			  10.14945			  -0.63893			 -0.24831
	26.25			  10.25705			  -0.62271			 -0.17258
	26.50			  10.27731			  -0.48289			 -0.01608
	26.75			  10.18352			  -0.55152			 0.04055
	27.00			  10.13398			  -0.53411			 0.13671
	27.25			  10.12743			  -0.67176			 0.17687
	27.50			  10.29995			  -0.42317			 0.05140
	27.75			  10.35863			  -0.53629			 0.03940
	28.00			  10.36362			  -0.60887			 0.21184
	28.25			  10.56459			  -0.49199			 0.12143
	28.50			  10.56584			  -0.54123			 0.10285
	28.75			  10.37172			  -0.56971			 0.11701
	29.00			  10.48337			  -0.58356			 0.03321
	29.25			  10.37286			  -0.82958			 -0.02509
	29.50			  10.33235			  -0.79062			 0.11808
	29.75			  10.31761			  -0.74474			 0.28459
	30.00			  10.38065			  -0.52620			 0.36124
	30.25			  10.22776			  -0.31143			 0.41117
	30.50			  10.13263			  -0.32369			 0.22265
	30.75			  10.12941			  -0.19534			 0.20550
	31.00			  10.47298			  -0.25803			 0.20925
	31.25			  10.31594			  -0.10100			 0.13551
	31.50			  10.28447			  0.02419			 0.11673
	31.75			  10.54797			  0.27832			 0.00398
	32.00			  10.49968			  0.25756			 0.15541
	32.25			  10.58775			  0.11931			 0.12482
	32.50			  10.45138			  0.08055			 0.18245
	32.75			  10.24449			  0.20851			 0.39805
	33.00			  10.25695			  0.13316			 0.45919
	33.25			  10.20699			  0.09202			 0.40268
	33.50			  10.07395			  0.05939			 0.24012
	33.75			  10.04632			  0.14641			 0.15294
	34.00			  10.18072			  0.07323			 0.09008
	34.25			  9.97258			  0.15195			 0.01953
	34.50			  10.10884			  0.16263			 0.26233
	34.75			  10.00363			  0.36376			 0.06990
	35.00			  10.09347			  0.25241			 -0.00739
	35.25			  9.97455			  0.35466			 -0.06789
	35.50			  10.02014			  0.22176			 -0.00986
	35.75			  10.06262			  0.40845			 0.07198
	36.00			  10.22268			  0.76365			 0.09838
	36.25			  10.16815			  0.72765			 0.25739
	36.50			  10.16129			  0.46818			 0.27163
	36.75			  10.18539			  0.31095			 0.25260
	37.00			  10.30514			  0.33745			 0.14448
	37.25			  10.14561			  0.23026			 0.15138
	37.50			  10.13211			  -0.07371			 0.13364
	37.75			  10.14125			  -0.20819			 0.12757
	38.00			  9.82073			  -0.19593			 0.10907
	38.25			  9.82696			  -0.21353			 0.18839
	38.50			  9.62755			  -0.40477			 0.33883
	38.75			  9.62942			  -0.30371			 0.29787
	39.00			  9.80972			  -0.31538			 0.31657
	39.25			  10.00207			  -0.15024			 0.46222
	39.50			  9.89458			  -0.05215			 0.52069
	39.75			  9.96738			  -0.09922			 0.32323
	40.00			  10.08194			  0.00006			 0.36722
	40.25			  10.28800			  -0.10950			 0.29113
	40.50			  10.22704			  0.06216			 0.31988
	40.75			  10.05743			  0.11220			 0.51159
	41.00			  10.00986			  0.10646			 0.44890
	41.25			  9.88294			  0.01964			 0.32411
	41.50			  9.92698			  -0.19553			 0.36307
	41.75			  9.94703			  -0.08913			 0.46326
	42.00			  9.91878			  -0.31321			 0.64444
	42.25			  10.08423			  -0.30094			 0.67080
	42.50			  10.20138			  0.05445			 0.49660
	42.75			  10.38730			  0.16579			 0.31135
	43.00			  10.36673			  0.10547			 0.24116
	43.25			  10.40267			  0.17034			 0.43753
	43.50			  10.49292			  0.28722			 0.30724
	43.75			  10.36341			  0.17667			 0.28303
	44.00			  10.29787			  -0.01062			 0.44671
	44.25			  10.43289			  -0.20008			 0.56432
	44.50			  10.49240			  -0.18070			 0.57505
	44.75			  10.35687			  -0.25704			 0.50761
	45.00			  10.31916			  -0.10515			 0.41552
	45.25			  10.22008			  -0.02308			 0.29787
	45.50			  10.22901			  -0.14332			 0.22660
	45.75			  10.23940			  -0.10100			 0.21320
	46.00			  10.19671			  -0.16330			 0.25938
	46.25			  10.19349			  -0.19118			 0.11545
	46.50			  10.31034			  -0.06817			 0.17244
	46.75			  10.26796			  -0.02031			 0.11393
	47.00			  10.42895			  -0.37629			 0.19318
	47.25			  10.56573			  -0.42930			 0.20263
	47.50			  10.40184			  -0.57921			 0.00554
	47.75			  10.48493			  -0.60373			 -0.10175
	48.00			  10.58412			  -0.57189			 0.04953
	48.25			  10.48046			  -0.68165			 0.23382
	48.50			  10.51702			  -0.80288			 0.24626
	48.75			  10.60146			  -0.78844			 0.23964
	49.00			  10.67001			  -0.64526			 0.33121
	49.25			  10.81479			  -0.55745			 0.46378
	49.50			  10.68642			  -0.51256			 0.56683
	49.75			  10.85395			  -0.07054			 0.47183
	50.00			  10.76432			  -0.06560			 0.41253
	50.25			  10.92156			  -0.03712			 0.38166
	50.50			  10.81812			  -0.14807			 0.08470
	50.75			  10.68071			  -0.04760			 0.23346
	51.00			  10.42209			  -0.03534			 0.11856
	51.25			  10.49791			  -0.08953			 0.11856
	51.50			  10.70958			  0.06552			 0.13467
	51.75			  10.70096			  -0.02763			 0.13208
	52.00			  10.72516			  -0.19237			 0.04801
	52.25			  10.79724			  -0.30668			 0.15597
	52.50			  10.90671			  -0.48863			 0.30018
	52.75			  11.01919			  -0.47478			 0.52029
	53.00			  10.76712			  -0.31301			 0.48156
	53.25			  10.60696			  -0.20068			 0.54797
	53.50			  10.47745			  -0.25585			 0.53588
	53.75			  10.37078			  -0.43582			 0.54513
	54.00			  10.44681			  -0.51730			 0.35470
	54.25			  10.45387			  -0.47597			 0.60691
	54.50			  10.43632			  -0.33634			 0.53883
	54.75			  10.41181			  -0.42712			 0.58270
	55.00			  10.44110			  -0.22006			 0.38928
	55.25			  10.37753			  -0.16290			 0.08965
	55.50			  10.19671			  -0.34010			 0.17104
	55.75			  10.35842			  -0.21155			 0.14831
	56.00			  10.35095			  -0.13759			 0.32100
	56.25			  10.41856			  -0.04068			 0.02368
	56.50			  10.53623			  0.00303			 0.26852
	56.75			  10.33609			  0.01727			 0.42485
	57.00			  10.11705			  -0.03514			 0.39913
	57.25			  9.90870			  -0.32033			 0.21551
	57.50			  10.00571			  -0.24933			 0.29264
	57.75			  9.84379			  -0.15024			 0.24407
	58.00			  9.94941			  -0.28255			 0.16845
	58.25			  9.91691			  -0.50999			 0.25460
	58.50			  9.87806			  -0.39825			 0.27649
	58.75			  9.95772			  -0.27761			 0.07972
	59.00			  10.11321			  -0.06936			 -0.09301
	59.25			  10.05587			  -0.21571			 0.11736
	59.50			  10.17386			  -0.12058			 0.19114
	59.75			  10.21779			  -0.09823			 0.15796
	60.00			  10.35832			  -0.09625			 0.05064
	60.25			  10.25737			  0.00006			 0.15952
	60.50			  10.31594			  0.05484			 0.23190
	60.75			  10.36175			  0.13632			 0.00837
	61.00			  10.39446			  0.14977			 -0.11431
	61.25			  10.57435			  0.44029			 -0.07889
	61.50			  10.59253			  0.45809			 0.08406
	61.75			  10.37826			  0.36811			 0.04091
	62.00			  10.27793			  0.21701			 -0.21274
	62.25			  10.31823			  0.09618			 -0.08456
	62.50			  10.37369			  -0.15321			 -0.09820
	62.75			  10.44889			  0.04871			 -0.07104
	63.00			  10.53800			  0.20910			 -0.20524
	63.25			  10.58744			  0.20495			 -0.33609
	63.50			  10.45470			  0.25162			 -0.28584
	63.75			  10.31729			  0.27555			 -0.07215
	64.00			  10.42510			  0.13791			 -0.04775
	64.25			  10.64529			  0.01114			 0.05802
	64.50			  10.68891			  -0.10436			 0.06651
	64.75			  10.58006			  -0.08834			 0.02635
	65.00			  10.45242			  -0.01596			 0.11752
	65.25			  10.59751			  0.07205			 0.41305
	65.50			  10.55296			  0.04159			 0.20614
	65.75			  10.74448			  0.01074			 0.06843
	66.00			  10.74230			  0.16559			 0.04976
	66.25			  10.63532			  0.40390			 -0.12288
	66.50			  10.58173			  0.32460			 -0.11997
	66.75			  10.59969			  0.35545			 -0.03602
	67.00			  10.72080			  0.48934			 0.03194
	67.25			  10.85042			  0.18260			 -0.14777
	67.50			  10.99936			  0.02775			 -0.32504
	67.75			  10.85198			  0.17054			 0.05567
	68.00			  10.86444			  0.24272			 0.05989
	68.25			  10.82632			  0.09855			 0.26477
	68.50			  10.72464			  0.15373			 0.11118
	68.75			  10.74302			  -0.06520			 -0.04711
	69.00			  10.61507			  -0.05057			 -0.06438
	69.25			  10.70574			  -0.02565			 -0.16528
	69.50			  10.79350			  -0.02427			 -0.34287
	69.75			  11.04256			  0.05504			 -0.53993
	70.00			  10.88345			  0.27199			 -0.60134
	70.25			  10.70034			  0.15036			 -0.61502
	70.50			  10.64072			  0.27793			 -0.69451
	70.75			  10.79038			  0.38650			 -0.79557
	71.00			  10.90276			  0.37187			 -0.62320
	71.25			  11.08203			  0.33548			 -0.47755
	71.50			  11.03955			  0.17687			 -0.51348
	71.75			  10.79911			  0.26725			 -0.23399
	72.00			  10.88968			  0.07719			 -0.26075
	72.25			  10.85862			  0.01549			 -0.23599
	72.50			  10.74687			  0.34220			 0.05635
	72.75			  10.80773			  0.24431			 -0.03478
	73.00			  10.64176			  -0.00528			 -0.02023
	73.25			  10.36029			  -0.03613			 -0.03223
	73.50			  10.29330			  -0.20364			 -0.09369
	73.75			  10.11549			  0.04733			 -0.18043
	74.00			  10.24407			  0.13810			 -0.27511
	74.25			  10.32176			  0.07047			 -0.30753
	74.50			  10.55555			  -0.24300			 -0.38072
	74.75			  10.61797			  -0.09447			 -0.26961
	75.00			  10.68964			  -0.06323			 -0.32600
	75.25			  10.79122			  0.10686			 -0.26502
	75.50			  10.61891			  0.29137			 -0.26502
	75.75			  10.49957			  0.38393			 -0.30514
	76.00			  10.65100			  0.31788			 -0.36469
	76.25			  10.71924			  0.37543			 -0.36927
	76.50			  10.72204			  0.10784			 -0.20560
	76.75			  10.77595			  0.12406			 -0.18318
	77.00			  10.92146			  0.20396			 -0.16296
	77.25			  10.76577			  0.01786			 0.09272
	77.50			  10.87410			  0.17271			 -0.02936
	77.75			  10.72755			  0.14522			 -0.14813
	78.00			  10.84325			  0.10903			 -0.21433
	78.25			  10.53000			  0.08906			 -0.33079
	78.50			  10.31304			  0.22413			 -0.47564
	78.75			  10.25705			  -0.01853			 -0.43380
	79.00			  10.10490			  -0.11900			 -0.22945
	79.25			  10.22662			  -0.36937			 -0.13995
	79.50			  10.37328			  -0.34149			 0.02201
	79.75			  10.37982			  -0.14748			 -0.19658
	80.00			  10.31501			  -0.31795			 -0.17597
	80.25			  10.26162			  -0.39469			 0.01335
	80.50			  10.53831			  -0.48408			 -0.19758
	80.75			  10.61205			  -0.21452			 -0.21174
	81.00			  10.47122			  -0.25368			 -0.22658
	81.25			  10.30369			  -0.16112			 -0.06442
	81.50			  10.14686			  0.03388			 -0.27041
	81.75			  10.20533			  0.32737			 -0.19236
	82.00			  10.25892			  0.31610			 0.11421
	82.25			  10.36985			  0.42902			 0.04430
	82.50			  10.49479			  0.08490			 -0.26291
	82.75			  10.31594			  0.13039			 -0.30060
	83.00			  10.22475			  0.25142			 -0.32213
	83.25			  10.37795			  0.38472			 -0.04495
	83.50			  10.32425			  0.23521			 -0.20344
	83.75			  10.19432			  0.27713			 -0.33150
	84.00			  10.34887			  0.31550			 -0.40022
	84.25			  10.39436			  0.44643			 -0.21046
	84.50			  10.25726			  0.53601			 -0.16950
	84.75			  10.21790			  0.38591			 -0.07016
	85.00			  10.10614			  0.13652			 0.01455
	85.25			  10.28375			  0.32579			 0.04809
	85.50			  10.18207			  0.14206			 -0.01221
	85.75			  10.22787			  0.04238			 0.05798
	86.00			  9.88990			  0.13435			 0.19828
	86.25			  10.02233			  0.05504			 0.16123
	86.50			  10.01807			  0.03190			 0.11912
	86.75			  9.89520			  0.01351			 -0.08169
	87.00			  9.99106			  0.19822			 -0.09891
	87.25			  9.90714			  0.20159			 -0.24376
	87.50			  9.77389			  0.54432			 -0.17872
	87.75			  10.02129			  0.27476			 -0.03518
	88.00			  10.12473			  0.17093			 0.14963
	88.25			  10.01879			  0.16263			 0.07238
	88.50			  10.13273			  0.36831			 -0.27523
	88.75			  10.14540			  0.53700			 -0.31041
	89.00			  10.38293			  0.38868			 -0.27950
	89.25			  10.21686			  0.43298			 -0.45641
	89.50			  10.19453			  0.36099			 -0.30418
	89.75			  9.96375			  0.46660			 -0.31108
	90.00			  10.05795			  0.59633			 -0.24552
	90.25			  10.06501			  0.65388			 -0.00731
	90.50			  10.03354			  0.52672			 0.08414
	90.75			  9.95222			  0.33469			 0.04095
	91.00			  9.97195			  0.40667			 0.05399
	91.25			  10.02835			  0.40944			 0.11776
	91.50			  10.03510			  0.65408			 0.09838
	91.75			  10.00851			  0.71203			 -0.02214
	92.00			  9.98514			  0.43515			 -0.16699
	92.25			  10.11487			  0.45592			 0.07601
	92.50			  10.04351			  0.49369			 0.26608
	92.75			  10.01807			  0.64222			 0.31769
	93.00			  10.16129			  0.58368			 0.18648
	93.25			  9.97112			  0.43535			 -0.07953
	93.50			  9.86103			  0.37028			 -0.16328
	93.75			  9.91047			  0.32579			 0.07768
	94.00			  9.98410			  0.46620			 -0.03670
	94.25			  10.03593			  0.43733			 -0.02007
	94.50			  10.10033			  0.47016			 -0.04759
	94.75			  10.09981			  0.53028			 -0.17553
	95.00			  10.06262			  0.56390			 -0.25421
	95.25			  10.23265			  0.93017			 -0.19539
	95.50			  10.24314			  0.79351			 -0.21409
	95.75			  10.26256			  0.91850			 -0.24959
	96.00			  10.33921			  0.81309			 -0.13210
	96.25			  10.39052			  0.73537			 0.00709
	96.50			  10.26422			  0.80656			 0.11007
	96.75			  10.42074			  0.85086			 0.00502
	97.00			  10.32560			  0.85146			 0.01359
	97.25			  10.38667			  0.47411			 -0.02310
	97.50			  10.53104			  0.47095			 -0.25501
	97.75			  10.50996			  0.43931			 -0.16328
	98.00			  10.61984			  0.46086			 0.04665
	98.25			  10.59440			  0.54590			 0.03569
	98.50			  10.71997			  0.52415			 -0.00292
	98.75			  10.69192			  0.33825			 0.18656
	99.00			  10.74614			  0.43753			 0.13906
	99.25			  10.71425			  0.39520			 -0.03323
	99.50			  10.82414			  0.38452			 0.01754
	99.75			  10.89799			  0.23402			 0.03800
	100.00			  10.85312			  0.07086			 0.15641
	100.25			  10.81666			  -0.05551			 0.07146
	100.50			  10.81375			  -0.01438			 -0.23375
	100.75			  10.65453			  -0.02941			 -0.35830
	101.00			  10.75424			  0.15867			 -0.35168
	101.25			  10.75715			  0.14226			 -0.21461
	101.50			  10.63885			  -0.12829			 -0.30091
	101.75			  10.62099			  -0.11880			 -0.24356
	102.00			  10.38553			  -0.29422			 -0.18019
	102.25			  10.45803			  -0.39132			 -0.03778
	102.50			  10.62961			  -0.34346			 -0.06964
	102.75			  10.54943			  -0.11366			 -0.23355
	103.00			  10.55586			  0.13237			 -0.20229
	103.25			  10.56635			  -0.02723			 0.00769
	103.50			  10.42718			  -0.30787			 -0.43053
	103.75			  10.31065			  -0.39805			 -0.47420
	104.00			  10.44785			  -0.33279			 -0.25992
	104.25			  10.61943			  -0.47241			 -0.27691
	104.50			  10.35053			  -0.46667			 -0.39819
	104.75			  10.35863			  -0.54776			 -0.14051
	105.00			  10.46166			  -0.48784			 -0.26067
	105.25			  10.43487			  -0.40042			 -0.07371
	105.50			  10.40205			  0.00006			 0.14608
	105.75			  10.42438			  0.08016			 0.03967
	106.00			  10.65630			  -0.13225			 -0.23216
	106.25			  10.77003			  0.08708			 -0.32173
	106.50			  10.79849			  -0.02268			 -0.29820
	106.75			  10.46935			  -0.13937			 -0.09927
	107.00			  10.37317			  -0.29580			 0.17467
	107.25			  10.51619			  -0.30015			 0.27091
	107.50			  10.56376			  -0.17061			 0.25149
	107.75			  10.50425			  -0.06085			 0.32495
	108.00			  10.75445			  -0.09922			 0.25380
	108.25			  10.79122			  0.09875			 0.15362
	108.50			  10.77979			  0.20554			 0.30062
	108.75			  10.80680			  0.26230			 0.66231
	109.00			  10.76868			  0.21780			 0.68109
	109.25			  10.85343			  0.10686			 0.59331
	109.50			  10.78436			  -0.03059			 0.49787
	109.75			  10.60842			  0.06196			 0.26760
	110.00			  10.73295			  0.03032			 0.15625
	110.25			  10.55493			  -0.07114			 0.12733
	110.50			  10.73523			  -0.03653			 0.01204
	110.75			  10.62151			  -0.31143			 -0.10581
	111.00			  10.43071			  -0.37807			 0.19860
	111.25			  10.55296			  -0.27326			 0.21555
	111.50			  10.53686			  -0.22975			 0.33177
	111.75			  10.37504			  -0.20522			 0.12171
	112.00			  10.35333			  -0.30352			 0.11916
	112.25			  10.37598			  -0.21353			 0.07585
	112.50			  10.27076			  -0.43167			 0.04279
	112.75			  10.26100			  -0.47320			 -0.14298
	113.00			  10.14208			  -0.35039			 -0.20540
	113.25			  10.19910			  -0.16310			 -0.27567
	113.50			  10.32602			  -0.33555			 -0.22701
	113.75			  10.24469			  -0.27207			 -0.13154
	114.00			  10.24958			  -0.12948			 -0.18825
	114.25			  10.09877			  -0.28710			 -0.47735
	114.50			  9.97310			  -0.20246			 -0.49111
	114.75			  9.91192			  -0.16705			 -0.07953
	115.00			  9.81408			  -0.32329			 -0.23276
	115.25			  9.82187			  -0.16330			 -0.16911
	115.50			  9.92802			  -0.34129			 -0.24644
	115.75			  9.70015			  -0.58059			 -0.31065
	116.00			  9.86362			  -0.42593			 -0.62487
	116.25			  9.91182			  -0.28492			 -0.60441
	116.50			  9.85989			  -0.31182			 -0.35886
	116.75			  9.85511			  -0.38717			 -0.14414
	117.00			  9.90901			  -0.29877			 -0.08635
	117.25			  9.60574			  -0.30787			 -0.05784
	117.50			  9.66442			  -0.34149			 -0.15271
	117.75			  9.64230			  -0.05096			 -0.17297
	118.00			  9.78116			  -0.21946			 -0.24616
	118.25			  10.00197			  -0.38262			 -0.25888
	118.50			  10.21811			  -0.10614			 -0.37501
	118.75			  10.34980			  -0.04562			 -0.44413
	119.00			  10.29392			  -0.16409			 -0.19989
	119.25			  10.20720			  -0.14095			 -0.23204
	119.50			  10.34918			  -0.17141			 -0.41051
	119.75			  10.28385			  -0.25269			 -0.23762
	120.00			  10.39270			  -0.26159			 -0.22594
	120.25			  10.47142			  -0.72931			 -0.14043
	120.50			  10.55981			  -0.82029			 -0.10163
	120.75			  10.64872			  -0.84718			 -0.11012
	121.00			  10.68445			  -0.73188			 -0.21716
	121.25			  10.80908			  -0.60808			 -0.35639
	121.50			  10.77127			  -0.32705			 -0.36728
	121.75			  10.61444			  -0.33318			 -0.40931
	122.00			  10.51193			  -0.15776			 -0.40237
	122.25			  10.42271			  -0.19019			 -0.38175
	122.50			  10.37608			  0.00065			 -0.20221
	122.75			  10.62099			  0.01054			 -0.28480
	123.00			  10.49500			  0.11279			 0.01638
	123.25			  10.36112			  -0.11722			 0.11330
	123.50			  10.11819			  -0.33259			 0.14971
	123.75			  10.21354			  -0.47459			 0.08303
	124.00			  10.36434			  -0.52680			 0.01559
	124.25			  10.31927			  -0.48843			 -0.11076
	124.50			  10.33028			  -0.29659			 -0.19770
	124.75			  10.07737			  -0.39647			 -0.15455
	125.00			  10.04455			  -0.31874			 -0.20440
	125.25			  10.05442			  -0.29204			 -0.04930
	125.50			  10.20710			  -0.03574			 -0.02182
	125.75			  10.06159			  0.04752			 -0.05987
	126.00			  10.13917			  0.07956			 -0.11108
	126.25			  10.35531			  0.11318			 -0.11973
	126.50			  10.23909			  0.27061			 -0.11973
	126.75			  10.21239			  0.33686			 -0.23379
	127.00			  10.30483			  0.06671			 -0.22570
	127.25			  10.11269			  0.07185			 -0.09513
	127.50			  9.97123			  -0.13561			 0.00865
	127.75			  9.88782			  -0.22757			 -0.00507
	128.00			  9.55734			  -0.15321			 0.09188
	128.25			  9.44278			  -0.16844			 0.11772
	128.50			  9.51340			  -0.20918			 -0.00755
	128.75			  9.54591			  -0.33634			 -0.09524
	129.00			  9.47435			  -0.33021			 -0.02449
	129.25			  9.42460			  0.06532			 0.17017
	129.50			  9.26289			  0.27634			 -0.00065
	129.75			  9.50270			  0.08530			 -0.01815
	130.00			  9.50042			  -0.10496			 -0.02900
	130.25			  9.46926			  -0.13067			 -0.14139
	130.50			  9.62724			  -0.06421			 -0.35974
	130.75			  9.48245			  -0.17437			 -0.50874
	131.00			  9.75280			  0.13118			 -0.55205
	131.25			  9.83049			  0.19368			 -0.50395
	131.50			  9.71500			  0.22215			 -0.56190
	131.75			  9.71116			  0.33231			 -0.67811
	132.00			  9.54311			  0.24846			 -0.51596
	132.25			  9.68581			  0.05168			 -0.35547
	132.50			  9.58777			  -0.13917			 -0.41187
	132.75			  9.78002			  -0.35058			 -0.34650
	133.00			  10.04009			  -0.20661			 -0.31364
	133.25			  10.10355			  -0.15044			 -0.40540
	133.50			  10.19121			  -0.22025			 -0.54814
	133.75			  10.28375			  0.07264			 -0.82308
	134.00			  10.24999			  -0.01596			 -0.68075
	134.25			  10.20492			  -0.05532			 -0.67688
	134.50			  10.13159			  0.07403			 -0.60306
	134.75			  10.13024			  -0.24240			 -0.57682
	135.00			  10.06013			  -0.33793			 -0.76274
	135.25			  10.05006			  -0.09170			 -0.57438
	135.50			  10.10292			  -0.02288			 -0.43791
	135.75			  10.06834			  0.06829			 -0.60505
	136.00			  10.12307			  0.19031			 -0.49482
	136.25			  10.14987			  0.24312			 -0.64457
	136.50			  10.17438			  0.04396			 -0.64884
	136.75			  10.15091			  0.22334			 -0.26462
	137.00			  10.32384			  0.35288			 -0.04731
	137.25			  10.29278			  0.41735			 -0.11096
	137.50			  10.19598			  0.31115			 -0.15818
	137.75			  10.10656			  0.27120			 -0.19866
	138.00			  10.06699			  0.19862			 -0.24129
	138.25			  9.92459			  0.27931			 -0.23427
	138.50			  9.76797			  0.23481			 -0.23619
	138.75			  9.74533			  0.38808			 -0.17030
	139.00			  9.76932			  0.32717			 -0.18522
	139.25			  9.62557			  0.39580			 -0.09684
	139.50			  9.68218			  0.48440			 -0.06581
	139.75			  9.85885			  0.55678			 -0.12504
	140.00			  10.06356			  0.34714			 -0.04731
	140.25			  10.05639			  0.16718			 -0.19778
	140.50			  9.88097			  0.17588			 -0.19224
	140.75			  9.74179			  0.14621			 -0.08180
	141.00			  9.76994			  -0.01477			 -0.33553
	141.25			  9.83340			  -0.36285			 -0.16181
	141.50			  9.72767			  -0.28235			 -0.20352
	141.75			  9.91919			  -0.21907			 -0.17652
	142.00			  9.95076			  -0.33694			 -0.19969
	142.25			  9.87328			  -0.20977			 -0.14003
	142.50			  9.68529			  -0.13739			 0.20052
	142.75			  9.48536			  -0.01240			 0.47789
	143.00			  9.34483			  -0.03613			 0.42617
	143.25			  9.50842			  0.26547			 0.17531
	143.50			  9.63056			  0.08273			 0.20056
	143.75			  9.67906			  0.14878			 0.14085
	144.00			  9.48619			  0.06651			 0.12183
	144.25			  9.39500			  0.10310			 -0.11854
	144.50			  9.42408			  0.09954			 -0.11200
	144.75			  9.59400			  -0.07133			 0.13970
	145.00			  9.68664			  0.24094			 0.24387
	145.25			  9.65465			  0.13988			 0.05391
	145.50			  9.49138			  -0.27266			 0.03963
	145.75			  9.56388			  -0.03969			 0.01933
	146.00			  9.60781			  -0.00607			 0.01830
	146.25			  9.79975			  -0.20898			 0.04406
	146.50			  9.75820			  -0.45995			 0.36044
	146.75			  10.05785			  -0.60373			 0.22453
	147.00			  9.94308			  -0.54855			 0.06771
	147.25			  9.96801			  -0.68976			 0.14612
	147.50			  9.79061			  -0.55508			 0.17571
	147.75			  9.71043			  -0.42910			 0.24124
	148.00			  9.62962			  -0.13778			 0.25280
	148.25			  9.39614			  -0.03949			 0.04474
	148.50			  9.54965			  0.01588			 0.04633
	148.75			  9.67543			  -0.20364			 -0.14366
	149.00			  9.73307			  -0.00983			 -0.24735
	149.25			  9.71593			  -0.06303			 -0.02832
	149.50			  9.61467			  -0.26337			 0.06887
	149.75			  9.67865			  -0.27800			 0.23466
	150.00			  9.51797			  -0.13858			 0.04211
	150.25			  9.66006			  -0.20621			 -0.13636
	150.50			  9.39542			  -0.13047			 -0.33302
	150.75			  9.37963			  -0.05235			 -0.15052
	151.00			  9.29685			  -0.08419			 0.09694
	151.25			  9.55775			  -0.24478			 -0.12667
	151.50			  9.26808			  -0.07153			 -0.18725
	151.75			  9.30464			  0.45335			 -0.08428
	152.00			  9.44662			  0.24332			 -0.10187
	152.25			  9.60542			  0.35031			 -0.02753
	152.50			  9.67647			  0.19190			 -0.02960
	152.75			  9.66421			  0.07086			 0.01499
	153.00			  9.83714			  0.22235			 -0.13218
	153.25			  9.69734			  0.18221			 0.04594
	153.50			  9.59576			  0.37226			 0.21021
	153.75			  9.39012			  0.20890			 0.17416
	154.00			  9.53428			  0.02676			 0.41468
	154.25			  9.45399			  0.12525			 0.25220
	154.50			  9.53750			  0.30383			 0.30672
	154.75			  9.60418			  0.28228			 0.31462
	155.00			  9.40611			  0.04654			 0.30046
	155.25			  9.56959			  -0.13739			 0.16889
	155.50			  9.68176			  -0.09724			 0.34238
	155.75			  9.54165			  -0.02090			 0.42154
	156.00			  9.45794			  0.01549			 0.43562
	156.25			  9.53469			  0.16441			 0.22668
	156.50			  9.46272			  -0.02684			 -0.00747
	156.75			  9.35439			  -0.14906			 0.10572
	157.00			  9.40144			  -0.03672			 -0.12488
	157.25			  9.25697			  -0.01042			 -0.05066
	157.50			  9.20348			  0.05425			 0.00980
	157.75			  9.10782			  0.10211			 -0.04260
	158.00			  9.30911			  0.06592			 0.00709
	158.25			  9.30049			  0.06967			 -0.03714
	158.50			  9.22685			  0.16718			 0.14560
	158.75			  9.40372			  -0.13383			 0.10604
	159.00			  9.40497			  -0.21551			 0.16682
	159.25			  9.45171			  -0.16903			 0.03748
	159.50			  9.73037			  -0.00923			 0.06659
	159.75			  9.58559			  -0.14214			 -0.08850
	160.00			  9.73203			  -0.31103			 -0.17273
	160.25			  9.87796			  -0.13502			 -0.22510
	160.50			  9.75997			  0.01845			 -0.23204
	160.75			  9.63513			  -0.00745			 -0.22825
	161.00			  9.87993			  -0.28334			 -0.20129
	161.25			  9.94152			  -0.27761			 -0.11574
	161.50			  9.70087			  -0.08280			 -0.42905
	161.75			  9.77025			  -0.12829			 -0.58188
	162.00			  9.78230			  -0.00291			 -0.23028
	162.25			  9.81387			  0.12189			 -0.20185
	162.50			  9.99013			  -0.30708			 -0.18570
	162.75			  9.93145			  -0.18347			 -0.15738
	163.00			  9.90808			  -0.16666			 0.05627
	163.25			  9.99034			  -0.24280			 -0.01157
	163.50			  9.98431			  -0.24616			 -0.12783
	163.75			  10.28157			  -0.42139			 0.03804
	164.00			  10.21167			  -0.28947			 -0.24010
	164.25			  9.88782			  -0.22876			 -0.44090
	164.50			  9.95232			  -0.45105			 -0.40413
	164.75			  9.87598			  -0.37115			 -0.33087
	165.00			  10.03479			  -0.36977			 -0.35842
	165.25			  10.05733			  -0.48665			 -0.34905
	165.50			  10.04985			  -0.38618			 -0.45003