--------------TurbSim v2.00.* User Time Series Input File-----------------------
     Time series input from low-res turbsim run
--------------------------------------------------------------------------------
          3 nComp - Number of velocity components in the file
          1 nPoints - Number of time series points contained in this file (-)
          1 RefPtID - Index of the reference point (1-nPoints)
     Pointyi Pointzi ! nPoints listed in order of increasing height
       (m)     (m)
       1.26962   94.00000
--------Time Series-------------------------------------------------------------
Elapsed Time         Point01u             Point01v           Point01w
         (s)            (m/s)                (m/s)              (m/s)
	0.00			  10.10425			  -0.29304			 0.09483
	0.25			  10.02264			  -0.15817			 0.08682
	0.50			  10.08921			  -0.04505			 -0.01950
	0.75			  10.11565			  0.05759			 0.09391
	1.00			  10.17071			  -0.00253			 0.07391
	1.25			  10.21250			  0.05521			 -0.04863
	1.50			  10.01258			  0.08033			 0.13943
	1.75			  10.11389			  0.16695			 0.18890
	2.00			  10.04338			  0.41692			 0.17231
	2.25			  10.02938			  0.35383			 0.19170
	2.50			  9.95057			  0.18594			 0.14959
	2.75			  10.02140			  0.53320			 -0.13028
	3.00			  10.11265			  0.58225			 -0.15354
	3.25			  10.06557			  0.24111			 -0.11269
	3.50			  9.96934			  0.28007			 -0.07284
	3.75			  10.00771			  0.14678			 0.02107
	4.00			  10.14811			  0.15607			 0.12326
	4.25			  10.20079			  0.25673			 0.33201
	4.50			  10.24475			  0.47249			 0.19082
	4.75			  10.23189			  0.54507			 -0.00609
	5.00			  10.22609			  0.62892			 -0.02813
	5.25			  10.26404			  0.41989			 -0.34627
	5.50			  10.29566			  0.36333			 -0.40750
	5.75			  10.18907			  0.44560			 -0.38194
	6.00			  10.30406			  0.29708			 -0.16844
	6.25			  10.34938			  0.15113			 0.04061
	6.50			  10.37292			  -0.04050			 0.11970
	6.75			  10.23075			  -0.05731			 0.14568
	7.00			  10.37820			  0.07717			 -0.02985
	7.25			  10.36618			  0.02911			 -0.14794
	7.50			  10.35715			  0.07301			 -0.11595
	7.75			  10.26611			  0.08824			 -0.13698
	8.00			  10.14116			  0.44500			 -0.07836
	8.25			  10.27036			  0.17822			 -0.04725
	8.50			  10.21831			  0.23241			 -0.03759
	8.75			  10.19405			  0.06649			 -0.04177
	9.00			  10.15879			  0.10169			 -0.01357
	9.25			  10.35373			  0.04473			 -0.04246
	9.50			  10.41284			  0.12898			 0.11874
	9.75			  10.61037			  0.15469			 -0.07637
	10.00			  10.37903			  0.36135			 -0.04556
	10.25			  10.46106			  0.38488			 -0.34635
	10.50			  10.70722			  0.01210			 -0.23324
	10.75			  10.69996			  0.09516			 0.10146
	11.00			  10.56029			  0.42305			 0.08495
	11.25			  10.52929			  0.53261			 0.27565
	11.50			  10.65589			  0.38251			 0.20909
	11.75			  10.61711			  0.32476			 0.12698
	12.00			  10.36742			  0.11395			 0.26768
	12.25			  10.41937			  0.05601			 0.17181
	12.50			  10.46645			  -0.04663			 0.23595
	12.75			  10.43461			  -0.06839			 0.10085
	13.00			  10.46012			  -0.29522			 -0.00088
	13.25			  10.31837			  -0.37432			 0.09453
	13.50			  10.41491			  -0.21414			 0.23212
	13.75			  10.61017			  -0.19673			 0.23687
	14.00			  10.66906			  0.12779			 0.22687
	14.25			  10.49745			  0.13175			 0.30006
	14.50			  10.43544			  -0.18704			 0.25756
	14.75			  10.37489			  -0.13543			 0.36408
	15.00			  10.51601			  -0.04228			 0.10345
	15.25			  10.34772			  0.21619			 0.23699
	15.50			  10.24257			  0.11988			 0.21017
	15.75			  10.28841			  0.06827			 0.23270
	16.00			  10.35819			  -0.00550			 0.14422
	16.25			  10.39054			  -0.04268			 -0.06441
	16.50			  10.47391			  -0.08559			 -0.22768
	16.75			  10.54287			  -0.10379			 -0.07836
	17.00			  10.63972			  -0.04011			 -0.05096
	17.25			  10.71355			  -0.16015			 -0.03089
	17.50			  10.84109			  -0.00510			 0.04184
	17.75			  10.67912			  -0.09963			 0.07989
	18.00			  10.51943			  0.01111			 0.21518
	18.25			  10.49196			  -0.11743			 0.23040
	18.50			  10.46873			  -0.00471			 0.26776
	18.75			  10.35259			  0.03663			 0.66564
	19.00			  10.64449			  -0.04742			 0.58007
	19.25			  10.49268			  0.10327			 0.53647
	19.50			  10.51083			  -0.05652			 0.42616
	19.75			  10.43067			  -0.22462			 0.22212
	20.00			  10.32926			  0.04295			 0.16660
	20.25			  10.16812			  0.00993			 0.25442
	20.50			  10.54971			  0.06253			 0.30128
	20.75			  10.63433			  -0.03932			 0.29806
	21.00			  10.58341			  0.18712			 0.39692
	21.25			  10.75026			  0.05541			 0.32853
	21.50			  10.67777			  -0.12396			 0.35017
	21.75			  10.48978			  0.09615			 0.20557
	22.00			  10.18502			  0.06886			 0.02123
	22.25			  10.29587			  0.00043			 -0.10008
	22.50			  10.52794			  -0.19812			 -0.15802
	22.75			  10.54629			  -0.24222			 -0.06939
	23.00			  10.56661			  -0.06858			 0.03977
	23.25			  10.63381			  0.00281			 0.21687
	23.50			  10.73086			  -0.09706			 0.15491
	23.75			  10.56340			  -0.34881			 0.28251
	24.00			  10.18886			  -0.21631			 0.24867
	24.25			  10.02617			  0.01309			 0.28412
	24.50			  10.31640			  -0.18289			 0.24779
	24.75			  10.33248			  -0.46925			 0.12545
	25.00			  10.34492			  -0.30214			 -0.00721
	25.25			  10.43731			  -0.41921			 -0.04227
	25.50			  10.47215			  -0.58791			 -0.27868
	25.75			  10.54992			  -0.45976			 -0.39152
	26.00			  10.72734			  -0.52166			 -0.56805
	26.25			  10.69851			  -0.60729			 -0.64112
	26.50			  10.62396			  -0.69015			 -0.68825
	26.75			  10.46676			  -0.53530			 -0.59399
	27.00			  10.50015			  -0.30471			 -0.46501
	27.25			  10.49994			  -0.30886			 -0.28312
	27.50			  10.32791			  -0.25942			 -0.45164
	27.75			  10.45224			  -0.19476			 -0.35654
	28.00			  10.52939			  -0.11348			 -0.27090
	28.25			  10.27970			  -0.14334			 -0.23649
	28.50			  10.45566			  -0.37274			 -0.32213
	28.75			  10.38899			  -0.71823			 -0.20339
	29.00			  10.34243			  -0.80979			 -0.19362
	29.25			  10.44208			  -0.88969			 -0.14917
	29.50			  10.36856			  -0.70755			 0.01502
	29.75			  10.53094			  -0.90017			 0.04314
	30.00			  10.46873			  -0.76154			 0.02429
	30.25			  10.31194			  -0.69826			 0.04560
	30.50			  10.15153			  -0.69569			 0.08778
	30.75			  10.07801			  -0.88633			 -0.00820
	31.00			  10.14469			  -0.85805			 -0.04483
	31.25			  9.96074			  -0.92608			 -0.00732
	31.50			  10.08372			  -0.93419			 -0.28964
	31.75			  10.19405			  -0.73108			 -0.25197
	32.00			  10.15174			  -0.72713			 -0.23419
	32.25			  10.04421			  -0.69311			 -0.24412
	32.50			  10.03674			  -0.73801			 -0.24220
	32.75			  10.14106			  -0.71803			 -0.00878
	33.00			  9.83008			  -0.68758			 0.11502
	33.25			  9.92921			  -0.79753			 0.13123
	33.50			  10.09740			  -0.77875			 0.13254
	33.75			  10.12820			  -0.67195			 0.14039
	34.00			  10.09875			  -0.79457			 0.20461
	34.25			  10.11410			  -0.73484			 0.14652
	34.50			  10.10248			  -0.89186			 0.16215
	34.75			  9.90464			  -0.72238			 -0.00092
	35.00			  9.79058			  -0.51098			 0.06567
	35.25			  9.91262			  -0.35336			 -0.00188
	35.50			  10.11545			  -0.40359			 -0.02970
	35.75			  10.18357			  -0.23945			 -0.20116
	36.00			  10.26476			  -0.16292			 -0.25308
	36.25			  10.04089			  -0.03279			 -0.29067
	36.50			  10.23428			  0.06115			 -0.18013
	36.75			  10.29836			  -0.00530			 -0.03234
	37.00			  10.23044			  -0.11605			 0.23994
	37.25			  10.26746			  -0.06305			 0.00670
	37.50			  10.12633			  -0.05138			 -0.17411
	37.75			  10.25097			  0.09635			 -0.24029
	38.00			  10.39708			  0.05225			 -0.19247
	38.25			  10.46634			  0.13254			 -0.22569
	38.50			  10.28820			  0.25614			 -0.22845
	38.75			  10.10311			  0.02951			 -0.06614
	39.00			  10.18368			  -0.09686			 0.04717
	39.25			  10.23366			  -0.13147			 0.12192
	39.50			  10.46510			  -0.14314			 0.10725
	39.75			  10.76643			  -0.18783			 0.00586
	40.00			  10.77452			  -0.12574			 -0.03541
	40.25			  10.67881			  -0.08124			 -0.29037
	40.50			  10.47702			  0.02199			 -0.47390
	40.75			  10.34544			  -0.12811			 -0.57881
	41.00			  10.46137			  -0.08856			 -0.54004
	41.25			  10.39656			  0.05699			 -0.45130
	41.50			  10.35290			  -0.01123			 -0.64495
	41.75			  10.16180			  0.06491			 -0.48850
	42.00			  10.21904			  0.17466			 -0.48455
	42.25			  10.38391			  0.06688			 -0.59843
	42.50			  10.24454			  0.22094			 -0.34071
	42.75			  10.21852			  0.15904			 -0.13967
	43.00			  10.28986			  0.36095			 -0.31259
	43.25			  10.31091			  0.65166			 -0.40547
	43.50			  10.35207			  0.63762			 -0.45750
	43.75			  10.28799			  0.55199			 -0.60487
	44.00			  10.30479			  0.42622			 -0.45566
	44.25			  10.45701			  0.54784			 -0.25121
	44.50			  10.67331			  0.61350			 -0.05472
	44.75			  10.66450			  0.64514			 -0.14013
	45.00			  10.76778			  0.52272			 -0.19887
	45.25			  10.73595			  0.37836			 -0.11928
	45.50			  10.59482			  0.31468			 -0.10602
	45.75			  10.80221			  0.18870			 -0.10890
	46.00			  10.84379			  0.36333			 -0.03832
	46.25			  10.86950			  0.35304			 0.02249
	46.50			  10.93524			  0.37381			 -0.07020
	46.75			  10.94053			  0.30716			 -0.40079
	47.00			  11.00181			  0.15528			 -0.18178
	47.25			  11.10323			  0.10386			 -0.05330
	47.50			  11.07554			  0.15034			 -0.11357
	47.75			  11.03396			  0.17644			 -0.05686
	48.00			  11.10696			  0.18158			 0.05759
	48.25			  11.06289			  0.30321			 0.00559
	48.50			  11.24228			  0.32279			 0.08449
	48.75			  11.21045			  0.07479			 0.04713
	49.00			  11.11992			  0.14500			 0.07544
	49.25			  11.12936			  -0.11684			 0.15683
	49.50			  11.00296			  -0.04604			 0.11832
	49.75			  10.88184			  -0.16035			 0.19219
	50.00			  10.76270			  0.05205			 0.32994
	50.25			  10.80801			  0.19978			 0.11525
	50.50			  10.87199			  0.13610			 0.08816
	50.75			  10.95588			  0.14994			 0.01107
	51.00			  10.81994			  0.33960			 -0.01284
	51.25			  10.92570			  0.43828			 -0.04364
	51.50			  10.92311			  0.57691			 0.17449
	51.75			  10.94136			  0.52292			 0.34811
	52.00			  10.89833			  0.33702			 0.28312
	52.25			  11.06901			  0.29273			 0.06353
	52.50			  11.07564			  0.43828			 -0.14702
	52.75			  10.95723			  0.11751			 -0.20017
	53.00			  10.94209			  0.25238			 -0.39666
	53.25			  10.86629			  0.13313			 -0.16733
	53.50			  10.87749			  -0.08401			 -0.14304
	53.75			  10.63827			  -0.20128			 0.22369
	54.00			  10.77006			  0.01982			 0.16323
	54.25			  10.85374			  0.03801			 -0.27833
	54.50			  10.93120			  -0.21552			 -0.40206
	54.75			  10.88754			  0.00637			 -0.52709
	55.00			  10.86390			  0.08429			 -0.50942
	55.25			  10.63153			  -0.00214			 -0.39669
	55.50			  10.56070			  -0.14195			 -0.20289
	55.75			  10.58870			  -0.04070			 -0.04372
	56.00			  10.50938			  -0.21948			 -0.15591
	56.25			  10.61151			  -0.40241			 -0.29190
	56.50			  10.64656			  -0.44235			 -0.31140
	56.75			  10.61867			  -0.34960			 -0.23159
	57.00			  10.59980			  -0.29917			 -0.28473
	57.25			  10.70079			  -0.12593			 -0.15599
	57.50			  10.65486			  0.12008			 -0.07050
	57.75			  10.58424			  0.03900			 0.08456
	58.00			  10.65403			  0.04335			 0.03184
	58.25			  10.65828			  -0.15184			 -0.26523
	58.50			  10.41792			  -0.03318			 -0.17906
	58.75			  10.43337			  -0.05355			 0.16365
	59.00			  10.43669			  -0.20484			 0.17760
	59.25			  10.39438			  -0.11743			 0.26703
	59.50			  10.33963			  -0.29107			 0.19392
	59.75			  10.33683			  -0.11585			 0.26948
	60.00			  10.11928			  -0.43523			 0.30002
	60.25			  10.30292			  -0.45303			 0.32899
	60.50			  10.33299			  -0.47301			 0.22630
	60.75			  10.21541			  -0.26635			 0.33086
	61.00			  10.27067			  -0.14967			 0.32504
	61.25			  10.26217			  -0.08164			 0.22273
	61.50			  10.35622			  -0.24439			 0.44696
	61.75			  10.44840			  -0.18783			 0.62035
	62.00			  10.44685			  -0.21196			 0.54904
	62.25			  10.31506			  -0.05652			 0.63276
	62.50			  10.28727			  0.24427			 0.42332
	62.75			  10.44187			  0.30815			 0.19936
	63.00			  10.32065			  0.18514			 0.13326
	63.25			  10.22173			  0.20235			 0.20028
	63.50			  10.19270			  0.24942			 0.18177
	63.75			  10.08278			  0.41593			 0.07648
	64.00			  10.15640			  0.29194			 0.27477
	64.25			  10.03031			  0.04928			 0.41704
	64.50			  10.22671			  0.18851			 0.39838
	64.75			  10.24392			  0.11810			 0.17557
	65.00			  10.32065			  0.31725			 0.35726
	65.25			  10.43814			  0.50314			 0.26059
	65.50			  10.46883			  0.54250			 0.37198
	65.75			  10.27856			  0.69319			 0.16568
	66.00			  10.24548			  0.60460			 0.28025
	66.25			  10.37146			  0.56109			 0.55092
	66.50			  10.38567			  0.41277			 0.38152
	66.75			  10.27959			  0.42107			 0.51436
	67.00			  10.18658			  0.58976			 0.25484
	67.25			  10.23594			  0.45964			 0.11966
	67.50			  10.02254			  0.62437			 -0.01280
	67.75			  9.91501			  0.68034			 -0.00403
	68.00			  9.90806			  0.48792			 0.03046
	68.25			  10.10819			  0.53281			 0.08809
	68.50			  9.93087			  0.64296			 0.14234
	68.75			  9.98573			  0.76063			 0.38573
	69.00			  10.23158			  0.79900			 0.39363
	69.25			  10.19156			  0.56129			 0.51976
	69.50			  10.14469			  0.52529			 0.32519
	69.75			  10.01113			  0.61112			 0.07912
	70.00			  9.87363			  0.69201			 0.06690
	70.25			  9.88338			  0.62912			 0.19951
	70.50			  9.98251			  0.60361			 0.29239
	70.75			  9.97577			  0.66748			 0.45451
	71.00			  10.13245			  0.48396			 0.27749
	71.25			  10.24900			  0.57137			 0.43838
	71.50			  10.25668			  0.23201			 0.53214
	71.75			  10.30178			  0.15073			 0.59004
	72.00			  10.39148			  0.42483			 0.41386
	72.25			  10.19332			  0.31171			 0.41830
	72.50			  10.29276			  0.28660			 0.56417
	72.75			  10.27067			  0.45865			 0.20128
	73.00			  10.19498			  0.50374			 0.07472
	73.25			  10.35819			  0.48179			 0.07334
	73.50			  10.37862			  0.48535			 -0.00245
	73.75			  10.43202			  0.43175			 -0.01774
	74.00			  10.27430			  0.65226			 0.02663
	74.25			  10.36752			  0.43729			 0.03115
	74.50			  10.27690			  0.27869			 0.28281
	74.75			  10.24620			  0.20116			 0.30933
	75.00			  10.23428			  0.41850			 0.32489
	75.25			  10.23210			  0.57058			 0.32033
	75.50			  10.17320			  0.60736			 0.02831
	75.75			  10.15340			  0.64415			 0.09020
	76.00			  10.21696			  0.69656			 0.27733
	76.25			  10.25014			  0.69754			 0.46030
	76.50			  10.42435			  0.61963			 0.39769
	76.75			  10.19093			  0.58739			 0.18124
	77.00			  10.14241			  0.27354			 0.16660
	77.25			  10.25336			  0.25594			 0.29875
	77.50			  10.40713			  0.33149			 0.23070
	77.75			  10.44498			  0.23953			 0.22875
	78.00			  10.39106			  0.17961			 -0.00954
	78.25			  10.07625			  0.00301			 0.18445
	78.50			  10.13670			  -0.12969			 0.40137
	78.75			  10.09803			  -0.09330			 0.48854
	79.00			  9.92755			  -0.04940			 0.43221
	79.25			  9.87674			  -0.26813			 0.24185
	79.50			  10.04711			  -0.24894			 0.23262
	79.75			  10.09606			  -0.04268			 0.31485
	80.00			  9.96312			  0.02179			 0.32734
	80.25			  9.81494			  -0.02824			 0.19062
	80.50			  9.79970			  -0.05257			 0.05770
	80.75			  9.75148			  -0.02804			 0.19675
	81.00			  9.76797			  -0.06186			 -0.18714
	81.25			  9.74153			  0.19108			 -0.21783
	81.50			  9.60206			  0.23953			 -0.25442
	81.75			  9.69756			  0.24151			 -0.31056
	82.00			  9.78135			  0.27948			 -0.15963
	82.25			  9.83382			  0.16299			 -0.19427
	82.50			  9.58257			  0.04730			 -0.03855
	82.75			  9.56919			  0.24902			 -0.02085
	83.00			  9.76196			  0.36728			 -0.20714
	83.25			  9.78985			  0.33267			 -0.34363
	83.50			  9.53922			  0.03663			 -0.12809
	83.75			  9.54150			  0.13155			 -0.11909
	84.00			  9.60134			  0.07460			 -0.11572
	84.25			  9.57106			  0.01902			 -0.15676
	84.50			  9.52834			  0.01270			 -0.24963
	84.75			  9.56639			  -0.31559			 -0.13591
	85.00			  9.57220			  -0.14690			 -0.09855
	85.25			  9.51745			  0.13471			 0.23783
	85.50			  9.42226			  -0.05336			 0.22725
	85.75			  9.43107			  -0.22561			 0.02498
	86.00			  9.50811			  -0.17656			 -0.04763
	86.25			  9.55799			  -0.26199			 -0.18611
	86.50			  9.64934			  -0.26694			 -0.15488
	86.75			  9.77025			  -0.14828			 -0.01291
	87.00			  9.96779			  -0.29423			 0.06472
	87.25			  9.63006			  -0.08796			 0.22028
	87.50			  9.61513			  0.15251			 0.12625
	87.75			  9.59522			  0.08013			 0.22894
	88.00			  9.67071			  0.16814			 0.21495
	88.25			  9.62156			  0.19543			 -0.05146
	88.50			  9.42599			  0.05027			 0.05088
	88.75			  9.67257			  0.00795			 -0.16277
	89.00			  9.49764			  -0.13464			 -0.16289
	89.25			  9.43314			  -0.32884			 -0.20220
	89.50			  9.28880			  -0.17953			 -0.14779
	89.75			  9.23291			  -0.15421			 -0.03847
	90.00			  9.32530			  -0.01934			 -0.16066
	90.25			  9.30239			  -0.13978			 -0.14844
	90.50			  9.25832			  0.00736			 -0.08039
	90.75			  9.33837			  -0.15461			 0.00617
	91.00			  9.42537			  -0.20860			 0.00391
	91.25			  9.39613			  0.05640			 0.07131
	91.50			  9.53238			  -0.00075			 -0.16105
	91.75			  9.55944			  0.23221			 -0.13051
	92.00			  9.32924			  0.11138			 -0.25416
	92.25			  9.30260			  -0.11704			 -0.44777
	92.50			  9.26153			  0.01309			 -0.36853
	92.75			  9.13492			  0.19582			 -0.31546
	93.00			  9.09054			  0.36827			 -0.42060
	93.25			  9.00220			  0.46438			 -0.25373
	93.50			  8.91655			  0.33742			 -0.20806
	93.75			  8.80072			  0.49682			 0.01015
	94.00			  8.74877			  0.28145			 -0.07031
	94.25			  8.81389			  0.23894			 -0.17856
	94.50			  8.81690			  0.26623			 -0.12698
	94.75			  8.82706			  0.11474			 -0.15139
	95.00			  8.81047			  -0.00352			 -0.06694
	95.25			  8.68044			  0.21441			 0.07571
	95.50			  8.84054			  0.01448			 -0.06552
	95.75			  8.94434			  0.17348			 -0.10307
	96.00			  8.88482			  0.41395			 -0.15710
	96.25			  8.86366			  0.55456			 -0.19373
	96.50			  8.88917			  0.42938			 -0.48716
	96.75			  8.87413			  0.11771			 -0.75197
	97.00			  8.67639			  0.08152			 -0.75610
	97.25			  8.79481			  0.05897			 -0.51973
	97.50			  8.95636			  -0.10537			 -0.29803
	97.75			  9.08816			  -0.11427			 -0.18783
	98.00			  9.00489			  0.03939			 -0.11675
	98.25			  9.04108			  0.08310			 -0.07587
	98.50			  9.22628			  0.09457			 -0.07016
	98.75			  9.21746			  0.23142			 -0.07414
	99.00			  9.32489			  0.26820			 -0.12898
	99.25			  9.39602			  0.42997			 -0.20090
	99.50			  9.17277			  0.37638			 -0.25994
	99.75			  9.18459			  0.46735			 -0.29029
	100.00			  9.25738			  0.55516			 -0.29964
	100.25			  9.15701			  0.41910			 -0.24098
	100.50			  9.40131			  0.57375			 -0.28500
	100.75			  9.35175			  0.61468			 -0.19929
	101.00			  9.45108			  0.48633			 -0.10687
	101.25			  9.48541			  0.55694			 0.02609
	101.50			  9.53393			  0.55832			 -0.05897
	101.75			  9.68502			  0.34197			 -0.06365
	102.00			  9.75760			  0.34098			 -0.01268
	102.25			  9.51900			  0.26326			 -0.00790
	102.50			  9.30342			  0.25397			 0.17572
	102.75			  9.26081			  0.36768			 0.13874
	103.00			  9.15888			  0.18949			 -0.05138
	103.25			  9.14488			  0.07222			 -0.16166
	103.50			  9.28134			  -0.02626			 -0.10012
	103.75			  9.29243			  -0.05731			 -0.02337
	104.00			  9.42495			  0.00874			 0.06579
	104.25			  9.23706			  -0.19614			 0.19189
	104.50			  9.34314			  -0.32943			 0.22338
	104.75			  9.35268			  -0.36562			 0.22254
	105.00			  9.42640			  -0.10477			 -0.08476
	105.25			  9.16997			  -0.11644			 -0.03640
	105.50			  9.03714			  0.04177			 0.16997
	105.75			  9.07240			  -0.14986			 0.25741
	106.00			  9.02885			  -0.20741			 0.24825
	106.25			  9.08836			  -0.12811			 0.27829
	106.50			  9.21705			  -0.32686			 0.15457
	106.75			  9.28352			  -0.24756			 0.23561
	107.00			  9.03133			  0.05759			 0.14717
	107.25			  9.08401			  0.19464			 0.29841
	107.50			  9.24131			  0.14441			 0.17909
	107.75			  9.09676			  -0.09093			 0.08740
	108.00			  9.18397			  -0.14947			 0.09905
	108.25			  8.96062			  -0.17439			 0.05088
	108.50			  8.87331			  -0.05830			 0.09943
	108.75			  8.90690			  -0.21631			 0.09004
	109.00			  8.81710			  -0.04841			 0.06008
	109.25			  8.83183			  -0.22739			 0.20990
	109.50			  8.86781			  -0.28138			 0.16476
	109.75			  8.84230			  -0.18230			 0.06368
	110.00			  8.95802			  -0.25171			 0.04471
	110.25			  9.06016			  -0.25270			 0.00099
	110.50			  9.26464			  0.21184			 -0.06824
	110.75			  9.40266			  0.48436			 -0.12112
	111.00			  9.27439			  0.33129			 0.02920
	111.25			  9.37342			  0.42681			 0.17353
	111.50			  9.46612			  0.37262			 0.07617
	111.75			  9.65837			  0.49603			 0.15388
	112.00			  9.80851			  0.32991			 0.17675
	112.25			  9.59428			  0.10940			 0.18829
	112.50			  9.68657			  0.31171			 0.26933
	112.75			  9.54938			  0.11711			 0.32856
	113.00			  9.61202			  -0.14808			 0.22419
	113.25			  9.46197			  0.03623			 0.19020
	113.50			  9.67962			  0.16833			 0.12625
	113.75			  9.89126			  0.10584			 0.22174
	114.00			  9.98261			  -0.15540			 0.09081
	114.25			  10.01538			  -0.22956			 0.07655
	114.50			  9.93305			  -0.33655			 -0.17503
	114.75			  9.94497			  -0.10655			 -0.15273
	115.00			  9.99838			  -0.02646			 -0.04204
	115.25			  9.79068			  -0.03595			 -0.20339
	115.50			  9.65204			  -0.12415			 -0.16427
	115.75			  9.94394			  -0.01479			 0.02042
	116.00			  10.09243			  -0.14630			 0.15963
	116.25			  9.82573			  0.08053			 0.09077
	116.50			  9.98884			  -0.07392			 0.10698
	116.75			  10.00543			  0.11019			 -0.03422
	117.00			  10.07729			  0.29332			 0.08054
	117.25			  9.94176			  0.21105			 0.18817
	117.50			  9.72680			  0.19780			 0.29484
	117.75			  9.48115			  0.33208			 0.13307
	118.00			  9.65557			  0.32397			 -0.17151
	118.25			  9.66231			  0.18455			 -0.32163
	118.50			  9.35351			  0.04968			 -0.29408
	118.75			  9.35361			  -0.15362			 -0.28435
	119.00			  9.41521			  -0.25408			 -0.15882
	119.25			  9.62083			  -0.09489			 -0.19001
	119.50			  9.70461			  -0.04268			 -0.45785
	119.75			  9.60901			  -0.12890			 -0.60809
	120.00			  9.80416			  -0.13127			 -0.71101
	120.25			  9.66739			  -0.32449			 -0.60993
	120.50			  9.86523			  -0.23095			 -0.59341
	120.75			  9.94052			  -0.36008			 -0.60625
	121.00			  10.07210			  -0.51770			 -0.40286
	121.25			  10.27016			  -0.46114			 -0.28102
	121.50			  10.21354			  -0.40082			 -0.38819
	121.75			  10.26435			  -0.41585			 -0.39608
	122.00			  10.23905			  -0.41467			 -0.29577
	122.25			  10.27337			  -0.48883			 -0.00793
	122.50			  10.40247			  -0.49219			 0.08905
	122.75			  10.44861			  -0.38797			 0.16066
	123.00			  10.18036			  -0.35138			 0.01490
	123.25			  10.21841			  -0.25705			 -0.14028
	123.50			  10.23355			  -0.19871			 0.12468
	123.75			  10.28084			  0.05937			 0.01391
	124.00			  10.09782			  0.16161			 -0.10828
	124.25			  9.99423			  0.07262			 0.08943
	124.50			  10.13608			  -0.12099			 0.14874
	124.75			  10.15848			  -0.12514			 0.06184
	125.00			  10.09512			  -0.19535			 -0.19316
	125.25			  10.13287			  -0.14215			 -0.20814
	125.50			  10.16791			  -0.18685			 -0.41662
	125.75			  10.14085			  -0.14848			 -0.41677
	126.00			  10.21872			  -0.03200			 -0.13407
	126.25			  10.15703			  -0.41486			 -0.13189
	126.50			  10.10653			  -0.51058			 -0.24806
	126.75			  9.93678			  -0.15580			 -0.37792
	127.00			  9.78840			  -0.29265			 -0.21446
	127.25			  9.71716			  -0.29463			 -0.09606
	127.50			  9.91262			  -0.16173			 0.17135
	127.75			  9.95731			  -0.07729			 0.15166
	128.00			  9.94031			  -0.26298			 -0.05882
	128.25			  9.95057			  -0.29008			 -0.07855
	128.50			  10.18938			  -0.20089			 0.12050
	128.75			  10.45100			  -0.32884			 0.15081
	129.00			  10.42186			  -0.25250			 0.12319
	129.25			  10.24745			  -0.16826			 -0.08441
	129.50			  10.34170			  -0.22660			 0.09372
	129.75			  10.23811			  -0.12297			 0.14001
	130.00			  10.09688			  -0.31282			 0.10399
	130.25			  9.97888			  -0.24321			 -0.17576
	130.50			  10.19446			  -0.11387			 -0.15518
	130.75			  10.32864			  0.00617			 0.01084
	131.00			  10.22422			  -0.04584			 0.01272
	131.25			  10.35176			  -0.23510			 0.00827
	131.50			  10.45006			  -0.07610			 0.07311
	131.75			  10.37375			  -0.23332			 -0.01502
	132.00			  10.31329			  -0.25843			 0.16035
	132.25			  10.26165			  -0.25586			 0.15733
	132.50			  10.30261			  0.14836			 -0.11311
	132.75			  10.06578			  0.39279			 -0.25442
	133.00			  10.17922			  0.37539			 -0.30933
	133.25			  10.04722			  0.40189			 -0.41961
	133.50			  9.85310			  0.04117			 -0.14664
	133.75			  9.90536			  -0.24637			 -0.27485
	134.00			  10.00211			  -0.41249			 -0.17614
	134.25			  9.82987			  -0.51177			 0.00433
	134.50			  9.73209			  -0.57386			 0.19649
	134.75			  9.60631			  -0.51216			 0.09495
	135.00			  9.74101			  -0.50168			 0.01812
	135.25			  9.63275			  -0.34802			 -0.17327
	135.50			  9.80457			  -0.24815			 -0.19109
	135.75			  9.65640			  -0.24281			 0.00678
	136.00			  9.80053			  -0.17518			 0.04648
	136.25			  9.89448			  -0.17142			 -0.12668
	136.50			  9.97577			  -0.29265			 0.06717
	136.75			  9.86337			  -0.34624			 0.18116
	137.00			  9.98427			  -0.47815			 -0.06771
	137.25			  10.00045			  -0.11921			 -0.02763
	137.50			  9.94850			  0.14401			 -0.01188
	137.75			  10.24662			  0.00380			 -0.06951
	138.00			  10.14075			  -0.02152			 -0.00127
	138.25			  10.18108			  -0.08994			 0.01176
	138.50			  10.08589			  -0.26199			 -0.01908
	138.75			  10.04670			  -0.15085			 -0.01786
	139.00			  10.30064			  -0.14037			 -0.05135
	139.25			  10.36794			  -0.20702			 -0.17017
	139.50			  10.01517			  -0.06918			 -0.07158
	139.75			  10.00823			  -0.27999			 -0.10487
	140.00			  9.98417			  -0.35949			 0.01299
	140.25			  10.06505			  -0.21829			 0.06065
	140.50			  10.05105			  -0.10220			 -0.07740
	140.75			  9.81857			  -0.01143			 -0.05142
	141.00			  9.76196			  -0.02211			 0.23116
	141.25			  9.70181			  0.06985			 0.26013
	141.50			  9.63421			  0.13946			 0.27507
	141.75			  9.62757			  0.07222			 0.05146
	142.00			  9.65391			  -0.13523			 0.02659
	142.25			  9.60911			  -0.17083			 0.02329
	142.50			  9.50926			  -0.20108			 -0.15729
	142.75			  9.47566			  -0.33892			 -0.13468
	143.00			  9.64748			  -0.23154			 -0.03311
	143.25			  9.62384			  -0.34802			 0.09721
	143.50			  9.61129			  -0.26219			 -0.07173
	143.75			  9.68792			  -0.48289			 0.13414
	144.00			  9.64623			  -0.61203			 -0.16047
	144.25			  9.63068			  -0.52027			 -0.06342
	144.50			  9.66791			  -0.52106			 -0.12940
	144.75			  9.63483			  -0.50603			 -0.17595
	145.00			  9.60175			  -0.56121			 -0.12901
	145.25			  9.29865			  -0.78745			 -0.07518
	145.50			  9.43688			  -0.87031			 0.01598
	145.75			  9.70793			  -0.88633			 -0.20492
	146.00			  9.71944			  -0.76273			 -0.02042
	146.25			  9.59833			  -0.85192			 -0.02736
	146.50			  9.46415			  -0.91441			 0.22116
	146.75			  9.60279			  -0.99806			 0.23361
	147.00			  9.75947			  -1.05798			 0.18974
	147.25			  9.59428			  -1.03801			 0.13798
	147.50			  9.56878			  -0.69588			 0.23407
	147.75			  9.35506			  -0.73029			 0.19139
	148.00			  9.35143			  -0.62686			 0.16487
	148.25			  9.32686			  -0.71566			 -0.15679
	148.50			  9.27761			  -1.02891			 -0.13656
	148.75			  9.53881			  -0.75343			 -0.11043
	149.00			  9.56058			  -0.70004			 0.12047
	149.25			  9.42070			  -0.68837			 0.10625
	149.50			  9.57925			  -0.78606			 0.04517
	149.75			  9.55716			  -0.68441			 -0.07572
	150.00			  9.58537			  -0.83886			 0.05801
	150.25			  9.69010			  -0.76174			 -0.03441
	150.50			  9.54389			  -0.69331			 -0.00280
	150.75			  9.56598			  -0.75066			 0.00502
	151.00			  9.54617			  -0.75442			 -0.10828
	151.25			  9.52554			  -0.70241			 0.02797
	151.50			  9.61087			  -0.54539			 0.19909
	151.75			  9.45482			  -0.41467			 0.26707
	152.00			  9.59283			  -0.25448			 0.25680
	152.25			  9.55156			  -0.08618			 0.42842
	152.50			  9.21103			  -0.01578			 0.34002
	152.75			  9.43626			  -0.16450			 0.32695
	153.00			  9.46622			  -0.18586			 0.33079
	153.25			  9.45648			  -0.05474			 0.28484
	153.50			  9.45409			  -0.27940			 0.28358
	153.75			  9.51921			  -0.34881			 0.45436
	154.00			  9.45347			  -0.20781			 0.58498
	154.25			  9.33453			  -0.23451			 0.42520
	154.50			  9.59304			  -0.43919			 0.61004
	154.75			  9.66811			  -0.16292			 0.51524
	155.00			  9.63109			  -0.19436			 0.40140
	155.25			  9.54959			  -0.18823			 0.32799
	155.50			  9.58360			  -0.42179			 0.47344
	155.75			  9.51662			  -0.41229			 0.36565
	156.00			  9.38628			  -0.35672			 0.34063
	156.25			  9.23551			  -0.24301			 0.04682
	156.50			  9.21923			  -0.36898			 0.08682
	156.75			  9.27584			  -0.36404			 0.02751
	157.00			  9.46363			  -0.45817			 0.12510
	157.25			  9.46726			  -0.30708			 0.16250
	157.50			  9.28704			  -0.25962			 -0.12495
	157.75			  9.34822			  -0.33873			 0.16484
	158.00			  9.42547			  -0.17735			 0.04529
	158.25			  9.36129			  -0.24222			 -0.13549
	158.50			  9.31213			  -0.47775			 0.02123
	158.75			  9.48686			  -0.39074			 0.04996
	159.00			  9.32271			  -0.40478			 0.13729
	159.25			  8.96062			  -0.54301			 0.28887
	159.50			  9.08764			  -0.53075			 0.45696
	159.75			  9.23758			  -0.63893			 0.25308
	160.00			  9.29109			  -0.57683			 0.08809
	160.25			  9.31006			  -0.53530			 -0.02180
	160.50			  9.31846			  -0.53847			 0.17771
	160.75			  9.22565			  -0.65455			 0.10380
	161.00			  9.32530			  -0.52937			 0.04728
	161.25			  9.35735			  -0.64605			 0.04659
	161.50			  9.38887			  -0.55152			 0.33519
	161.75			  9.26672			  -0.44334			 0.22327
	162.00			  9.28569			  -0.46727			 0.31504
	162.25			  9.29648			  -0.83847			 0.12709
	162.50			  9.32644			  -0.77934			 0.10177
	162.75			  9.26983			  -0.77499			 0.06326
	163.00			  9.19807			  -0.79813			 -0.17503
	163.25			  9.32178			  -1.03267			 -0.08296
	163.50			  9.37528			  -1.03544			 0.06996
	163.75			  9.37155			  -0.86279			 0.04008
	164.00			  9.31276			  -0.79951			 -0.20300
	164.25			  9.34003			  -0.80089			 -0.12717
	164.50			  9.37549			  -0.96207			 -0.08813
	164.75			  9.30519			  -1.22134			 -0.02498
	165.00			  9.25967			  -1.12522			 0.01180
	165.25			  9.23634			  -0.97947			 0.03900
	165.50			  9.12269			  -1.04750			 -0.09805
	165.75			  9.34096			  -0.86200			 0.03946
	166.00			  9.55996			  -0.74809			 0.04157
	166.25			  9.53767			  -0.72673			 0.13936