--------------TurbSim v2.00.* User Time Series Input File-----------------------
     Time series input from low-res turbsim run
--------------------------------------------------------------------------------
          3 nComp - Number of velocity components in the file
          1 nPoints - Number of time series points contained in this file (-)
          1 RefPtID - Index of the reference point (1-nPoints)
     Pointyi Pointzi ! nPoints listed in order of increasing height
       (m)     (m)
       -2.95118   94.00000
--------Time Series-------------------------------------------------------------
Elapsed Time         Point01u             Point01v           Point01w
         (s)            (m/s)                (m/s)              (m/s)
	0.00			  10.12318			  -0.16982			 -0.05492
	0.25			  10.00135			  -0.21650			 0.15074
	0.50			  10.01578			  -0.44630			 0.12243
	0.75			  10.02243			  -0.46845			 0.21248
	1.00			  9.88149			  -0.14708			 0.24164
	1.25			  9.90361			  -0.29996			 0.15043
	1.50			  10.13128			  -0.43029			 0.14420
	1.75			  10.04383			  -0.57446			 0.28116
	2.00			  10.20959			  -0.37748			 0.12215
	2.25			  10.14810			  -0.50801			 -0.06490
	2.50			  10.08516			  -0.30371			 -0.09201
	2.75			  10.31719			  -0.21590			 -0.13700
	3.00			  10.28375			  -0.26277			 0.16426
	3.25			  10.11642			  -0.36878			 0.06500
	3.50			  10.14436			  -0.24359			 0.00801
	3.75			  10.19900			  -0.29086			 0.02907
	4.00			  10.28780			  -0.19237			 0.05523
	4.25			  10.07800			  -0.16171			 0.11617
	4.50			  10.10386			  -0.04998			 0.18213
	4.75			  10.08890			  -0.22144			 0.20215
	5.00			  10.01796			  -0.28235			 -0.04886
	5.25			  10.17251			  -0.10436			 0.15533
	5.50			  10.12224			  -0.22184			 -0.02573
	5.75			  10.19868			  0.00046			 -0.19674
	6.00			  9.96022			  -0.06718			 0.02013
	6.25			  9.97133			  -0.14629			 0.18724
	6.50			  10.08122			  -0.27998			 -0.06326
	6.75			  10.09742			  -0.40240			 -0.01692
	7.00			  10.01422			  -0.28097			 0.32507
	7.25			  10.00114			  -0.16607			 0.14612
	7.50			  10.18539			  -0.06224			 0.11681
	7.75			  10.40423			  0.29296			 -0.04659
	8.00			  10.41025			  0.30304			 0.12809
	8.25			  10.47911			  0.10705			 0.09746
	8.50			  10.32976			  0.12762			 0.06213
	8.75			  9.97704			  0.25123			 0.19545
	9.00			  10.16306			  0.14878			 0.02827
	9.25			  10.21478			  0.15294			 -0.19311
	9.50			  10.32695			  0.29177			 -0.34080
	9.75			  10.26734			  0.10923			 -0.39655
	10.00			  10.19048			  0.22927			 -0.39021
	10.25			  9.91130			  0.27318			 -0.34530
	10.50			  9.75395			  0.20178			 -0.26382
	10.75			  9.69983			  0.46205			 -0.20097
	11.00			  9.72445			  0.50912			 -0.05297
	11.25			  9.73961			  0.21246			 0.03134
	11.50			  9.73068			  0.32143			 -0.15463
	11.75			  9.79539			  -0.13106			 0.03692
	12.00			  9.87266			  -0.08696			 -0.10641
	12.25			  9.88897			  -0.15736			 -0.28289
	12.50			  9.89156			  0.01826			 -0.24037
	12.75			  9.61706			  -0.10100			 0.01587
	13.00			  9.75623			  -0.14866			 -0.02091
	13.25			  9.79591			  0.32697			 0.07501
	13.50			  9.81574			  0.12624			 0.04287
	13.75			  9.89551			  0.10428			 0.12486
	14.00			  9.85272			  -0.03949			 0.20782
	14.25			  9.74044			  -0.07470			 0.10520
	14.50			  9.72300			  -0.14352			 0.11409
	14.75			  9.64448			  0.04377			 0.10528
	15.00			  9.56793			  -0.05472			 0.15457
	15.25			  9.71251			  -0.28789			 -0.01835
	15.50			  9.72341			  -0.12018			 -0.25218
	15.75			  9.58621			  -0.22718			 -0.28799
	16.00			  9.50769			  -0.25506			 -0.38997
	16.25			  9.59514			  -0.25130			 -0.28628
	16.50			  9.85968			  -0.40161			 -0.16009
	16.75			  9.81429			  -0.48111			 -0.24672
	17.00			  9.83714			  -0.30984			 -0.31631
	17.25			  9.91971			  -0.50267			 -0.13509
	17.50			  9.82198			  -0.62647			 -0.17876
	17.75			  9.80027			  -0.52660			 -0.49286
	18.00			  9.74138			  -0.52858			 -0.47938
	18.25			  9.92314			  -0.54519			 -0.51612
	18.50			  10.03354			  -0.48981			 -0.35001
	18.75			  10.01713			  -0.52284			 -0.42192
	19.00			  10.21364			  -0.58039			 -0.48569
	19.25			  10.28624			  -0.66860			 -0.35260
	19.50			  10.34970			  -0.73070			 -0.55664
	19.75			  10.28728			  -0.53471			 -0.49366
	20.00			  10.10427			  -0.76372			 -0.48269
	20.25			  10.17542			  -0.87942			 -0.45853
	20.50			  10.23431			  -0.81257			 -0.29988
	20.75			  10.11497			  -0.71270			 -0.06605
	21.00			  9.97860			  -0.61995			 -0.08165
	21.25			  10.00862			  -0.61876			 -0.11786
	21.50			  10.11009			  -0.60096			 -0.26179
	21.75			  10.03032			  -0.36917			 -0.21664
	22.00			  10.03687			  -0.47795			 0.11338
	22.25			  9.98545			  -0.39864			 0.29081
	22.50			  10.00685			  -0.42890			 0.00446
	22.75			  10.04642			  -0.41506			 0.01914
	23.00			  10.07083			  -0.46292			 0.07708
	23.25			  10.18300			  -0.46865			 0.45113
	23.50			  10.20803			  -0.60907			 0.47291
	23.75			  10.17365			  -0.64744			 0.38716
	24.00			  10.20741			  -0.54697			 0.30449
	24.25			  10.20232			  -0.56714			 0.09986
	24.50			  10.03126			  -0.40912			 0.15908
	24.75			  10.01713			  -0.17892			 0.34170
	25.00			  10.04736			  -0.25308			 0.22301
	25.25			  10.29798			  -0.11979			 0.33133
	25.50			  10.21312			  -0.12097			 0.41991
	25.75			  10.37546			  -0.01517			 0.29472
	26.00			  10.49438			  0.05247			 0.16909
	26.25			  10.56957			  -0.12651			 0.13025
	26.50			  10.69005			  -0.13363			 0.16490
	26.75			  10.38574			  -0.22342			 0.30353
	27.00			  10.39291			  -0.20760			 0.38042
	27.25			  10.29122			  -0.30806			 0.27414
	27.50			  10.31750			  -0.20364			 0.28682
	27.75			  10.38969			  -0.13067			 0.31450
	28.00			  10.22455			  -0.04009			 0.39067
	28.25			  10.28935			  0.04970			 0.36491
	28.50			  10.27149			  0.10072			 0.14221
	28.75			  10.27440			  0.11239			 0.13268
	29.00			  10.10874			  0.10745			 0.14333
	29.25			  10.25508			  -0.04622			 0.43123
	29.50			  10.32103			  -0.25862			 0.25966
	29.75			  10.11269			  -0.23153			 0.03676
	30.00			  10.15184			  -0.19929			 -0.08675
	30.25			  10.31075			  -0.21017			 -0.12823
	30.50			  10.15132			  -0.01339			 0.08817
	30.75			  10.04767			  -0.05729			 0.26628
	31.00			  10.06616			  0.11378			 0.18696
	31.25			  9.86695			  0.07996			 0.22500
	31.50			  9.92802			  0.16006			 0.18141
	31.75			  10.06813			  0.19981			 0.13770
	32.00			  10.36227			  0.16678			 0.19166
	32.25			  10.24978			  0.10369			 -0.12751
	32.50			  9.95139			  0.00125			 0.03904
	32.75			  9.69049			  -0.09942			 0.20506
	33.00			  9.57395			  -0.20780			 -0.01137
	33.25			  9.53823			  0.03546			 -0.18941
	33.50			  9.46594			  0.03467			 -0.00176
	33.75			  9.49180			  0.24075			 0.03812
	34.00			  9.49107			  0.18952			 0.11007
	34.25			  9.44745			  0.20633			 -0.01317
	34.50			  9.42180			  0.30008			 0.02296
	34.75			  9.69651			  0.21365			 0.29767
	35.00			  9.50104			  0.05128			 0.29727
	35.25			  9.57707			  0.07106			 0.46318
	35.50			  9.52555			  0.12940			 0.43690
	35.75			  9.44111			  -0.04483			 0.25827
	36.00			  9.34359			  -0.14312			 0.22963
	36.25			  9.68488			  -0.45105			 0.41767
	36.50			  9.98224			  -0.60729			 0.27023
	36.75			  10.00540			  -0.56655			 0.20323
	37.00			  9.84015			  -0.43839			 0.30421
	37.25			  9.80307			  -0.32072			 0.16961
	37.50			  9.62453			  -0.25308			 0.13659
	37.75			  9.70700			  -0.45164			 0.14125
	38.00			  9.62318			  -0.28789			 0.07162
	38.25			  9.64593			  -0.45323			 -0.21314
	38.50			  9.66182			  -0.52818			 -0.19172
	38.75			  9.72601			  -0.59246			 -0.09245
	39.00			  9.54196			  -0.59681			 -0.34718
	39.25			  9.61342			  -0.35474			 -0.37027
	39.50			  9.56471			  -0.44749			 -0.40692
	39.75			  9.56315			  -0.37887			 -0.33709
	40.00			  9.57219			  -0.32685			 -0.28931
	40.25			  9.59795			  -0.37807			 -0.19276
	40.50			  9.33975			  -0.64051			 -0.34000
	40.75			  9.23391			  -0.38994			 -0.40485
	41.00			  9.48754			  -0.51730			 -0.45354
	41.25			  9.33580			  -0.47735			 -0.46012
	41.50			  9.41629			  -0.40477			 -0.30929
	41.75			  9.54352			  -0.40260			 -0.17565
	42.00			  9.46313			  -0.27543			 -0.20488
	42.25			  9.44018			  -0.28967			 -0.14378
	42.50			  9.38742			  -0.05413			 -0.29378
	42.75			  9.43987			  -0.32843			 -0.11610
	43.00			  9.58216			  -0.27108			 -0.35635
	43.25			  9.29903			  0.01549			 -0.37832
	43.50			  9.20254			  0.01094			 -0.40433
	43.75			  9.43447			  0.18814			 -0.31288
	44.00			  9.46511			  0.55520			 -0.18107
	44.25			  9.47580			  0.36020			 -0.15878
	44.50			  9.59265			  0.40648			 -0.19156
	44.75			  9.54342			  0.41063			 0.03305
	45.00			  9.42896			  0.28999			 0.08267
	45.25			  9.34909			  0.23363			 0.02847
	45.50			  9.23464			  0.45137			 0.19832
	45.75			  9.41878			  0.49330			 0.23230
	46.00			  9.24440			  0.22809			 0.40527
	46.25			  9.54030			  0.26982			 0.43167
	46.50			  9.63856			  0.24134			 0.60783
	46.75			  9.55744			  0.22571			 0.54418
	47.00			  9.54840			  0.30067			 0.56129
	47.25			  9.52940			  0.18458			 0.47259
	47.50			  9.47975			  0.32638			 0.66602
	47.75			  9.68696			  0.47075			 0.55782
	48.00			  9.60574			  0.41182			 0.45939
	48.25			  9.53739			  0.42131			 0.44579
	48.50			  9.33580			  0.36000			 0.36359
	48.75			  9.10419			  0.26309			 0.51953
	49.00			  9.03470			  0.23659			 0.66478
	49.25			  9.02993			  0.44168			 0.73202
	49.50			  9.27722			  0.70194			 0.42106
	49.75			  9.32531			  0.79133			 0.32128
	50.00			  9.40985			  0.64419			 0.06324
	50.25			  9.45150			  0.44385			 0.29468
	50.50			  9.62578			  0.14700			 0.39757
	50.75			  9.53760			  0.04733			 0.47199
	51.00			  9.43519			  0.07284			 0.35211
	51.25			  9.41889			  0.16915			 0.31944
	51.50			  9.40061			  0.16500			 0.34062
	51.75			  9.39271			  0.26804			 0.45668
	52.00			  9.23298			  0.04041			 0.20466
	52.25			  9.13971			  -0.18149			 0.10684
	52.50			  9.31939			  -0.13146			 0.17356
	52.75			  9.45420			  0.07482			 0.20614
	53.00			  9.56658			  0.14542			 0.14349
	53.25			  9.66483			  0.13138			 0.30509
	53.50			  9.58600			  0.02003			 0.28044
	53.75			  9.28324			  0.11081			 0.43247
	54.00			  9.33580			  0.13158			 0.25352
	54.25			  9.53210			  0.04950			 0.06823
	54.50			  9.49720			  0.01826			 -0.10805
	54.75			  9.19932			  0.16994			 0.12438
	55.00			  9.10304			  0.39599			 0.19553
	55.25			  9.15549			  0.40568			 0.34377
	55.50			  9.10782			  0.27990			 0.31913
	55.75			  9.17045			  0.42961			 0.12335
	56.00			  9.18915			  0.50932			 0.25603
	56.25			  9.24637			  0.27100			 0.20267
	56.50			  9.21106			  0.49547			 0.22951
	56.75			  9.27223			  0.32677			 0.18875
	57.00			  9.50655			  0.37404			 0.28319
	57.25			  9.68020			  0.30898			 0.24455
	57.50			  9.77254			  0.22631			 0.18149
	57.75			  9.82405			  0.28129			 0.40200
	58.00			  9.79560			  0.12070			 0.32439
	58.25			  9.90143			  0.36079			 0.23864
	58.50			  9.96022			  0.28959			 0.02400
	58.75			  10.21530			  0.11496			 -0.11088
	59.00			  10.21135			  0.05524			 -0.15854
	59.25			  10.31605			  -0.04187			 -0.13919
	59.50			  10.27492			  -0.17220			 -0.00563
	59.75			  10.35479			  -0.11919			 -0.03953
	60.00			  10.42770			  -0.30450			 -0.05413
	60.25			  10.38782			  -0.20048			 0.03628
	60.50			  10.41970			  -0.23667			 0.03656
	60.75			  10.50850			  -0.16171			 -0.03462
	61.00			  10.41794			  -0.00627			 0.01008
	61.25			  10.39789			  0.06967			 -0.16504
	61.50			  10.36102			  0.04219			 -0.17222
	61.75			  10.32498			  -0.22480			 0.15051
	62.00			  10.28208			  -0.52798			 0.30768
	62.25			  10.16597			  -0.47874			 0.22457
	62.50			  10.38055			  -0.34663			 0.19916
	62.75			  10.46021			  -0.35810			 0.22576
	63.00			  10.26941			  -0.18367			 0.24582
	63.25			  10.34430			  -0.03890			 0.39857
	63.50			  10.51089			  0.20178			 0.24327
	63.75			  10.45792			  0.15669			 0.07134
	64.00			  10.27907			  0.19407			 0.03732
	64.25			  10.11632			  0.26566			 0.22963
	64.50			  10.07706			  0.26388			 0.25216
	64.75			  9.86466			  0.37879			 0.19079
	65.00			  9.87671			  0.44919			 0.28072
	65.25			  9.95243			  0.39026			 0.17547
	65.50			  9.93228			  0.52494			 -0.00834
	65.75			  10.09700			  0.48756			 0.31625
	66.00			  10.30410			  0.30957			 0.35131
	66.25			  10.26879			  0.42566			 0.35677
	66.50			  10.47703			  0.53839			 0.40371
	66.75			  10.47797			  0.21701			 0.40663
	67.00			  10.52491			  0.31313			 0.37468
	67.25			  10.56532			  0.22789			 0.38054
	67.50			  10.40246			  0.15867			 0.14684
	67.75			  10.48347			  0.24925			 -0.01042
	68.00			  10.56438			  0.12663			 0.08965
	68.25			  10.35489			  0.06394			 -0.08551
	68.50			  10.57383			  0.07877			 -0.00392
	68.75			  10.34918			  0.09281			 0.05774
	69.00			  10.29206			  0.18675			 0.11836
	69.25			  10.21914			  0.34279			 -0.05532
	69.50			  10.26723			  0.10844			 -0.21006
	69.75			  10.17926			  0.01054			 -0.37402
	70.00			  10.06065			  0.20317			 -0.41430
	70.25			  10.04715			  0.06928			 -0.41936
	70.50			  9.90153			  0.28089			 -0.48206
	70.75			  9.92085			  -0.01161			 -0.47033
	71.00			  9.98348			  0.05959			 -0.41266
	71.25			  10.03624			  -0.02367			 -0.28815
	71.50			  10.18560			  0.19941			 -0.24440
	71.75			  10.24999			  0.32440			 -0.18861
	72.00			  9.93415			  0.46383			 -0.16875
	72.25			  9.93643			  0.52830			 -0.27471
	72.50			  9.93238			  0.53265			 -0.25393
	72.75			  9.94495			  0.57023			 -0.21848
	73.00			  10.17801			  0.45038			 -0.34323
	73.25			  10.26671			  0.66002			 -0.18007
	73.50			  10.42344			  0.53938			 0.08227
	73.75			  10.42676			  0.46422			 -0.16974
	74.00			  10.24968			  0.86036			 -0.35408
	74.25			  10.16181			  0.62936			 -0.07758
	74.50			  10.33817			  0.52830			 -0.19866
	74.75			  10.36736			  0.15610			 -0.29796
	75.00			  10.16617			  -0.09704			 -0.30064
	75.25			  10.02492			  -0.11168			 -0.49669
	75.50			  10.09981			  -0.07292			 -0.39854
	75.75			  10.36050			  0.29256			 -0.23539
	76.00			  10.20170			  0.42052			 -0.27966
	76.25			  10.18009			  0.35367			 -0.29744
	76.50			  10.10085			  0.17390			 -0.31563
	76.75			  10.15548			  0.16777			 -0.35360
	77.00			  10.06377			  0.45038			 -0.11519
	77.25			  10.00197			  0.39659			 -0.15299
	77.50			  10.10801			  0.64439			 -0.25669
	77.75			  10.09887			  0.59099			 -0.27459
	78.00			  9.88762			  0.41735			 -0.18306
	78.25			  9.95990			  0.43931			 -0.10326
	78.50			  10.00145			  0.23185			 -0.22733
	78.75			  9.94235			  0.26112			 0.04789
	79.00			  9.95752			  0.25696			 0.06484
	79.25			  9.88855			  0.34675			 -0.15100
	79.50			  9.81066			  0.30166			 -0.19140
	79.75			  9.75187			  0.07363			 -0.20448
	80.00			  9.67480			  0.09835			 0.03222
	80.25			  9.82270			  0.19783			 0.09671
	80.50			  10.03510			  0.12742			 -0.03259
	80.75			  10.08516			  0.16876			 0.07932
	81.00			  10.09337			  0.15926			 0.32228
	81.25			  10.14831			  0.37780			 0.20790
	81.50			  10.31667			  0.33745			 0.17906
	81.75			  10.41939			  0.45394			 0.21954
	82.00			  10.25487			  0.04060			 0.11497
	82.25			  10.40142			  0.08490			 0.26106
	82.50			  10.63708			  0.21879			 0.33643
	82.75			  10.53229			  0.43673			 0.30852
	83.00			  10.43206			  0.45869			 0.03505
	83.25			  10.62711			  0.30146			 0.29954
	83.50			  10.52439			  0.40331			 0.37021
	83.75			  10.49043			  0.31708			 0.11449
	84.00			  10.56480			  0.03408			 0.21731
	84.25			  10.71955			  0.25874			 0.12335
	84.50			  10.77678			  0.31234			 -0.05293
	84.75			  10.68600			  0.25756			 -0.21569
	85.00			  10.61112			  0.43772			 -0.10446
	85.25			  10.53800			  0.39224			 -0.29194
	85.50			  10.48981			  0.40133			 -0.42467
	85.75			  10.42832			  0.52573			 -0.34303
	86.00			  10.50913			  0.35545			 -0.29298
	86.25			  10.53395			  0.26646			 -0.19160
	86.50			  10.67988			  0.33647			 -0.06844
	86.75			  10.53478			  0.39678			 -0.29569
	87.00			  10.47007			  0.53859			 -0.14546
	87.25			  10.35520			  0.38828			 -0.16544
	87.50			  10.34991			  0.44148			 -0.26163
	87.75			  10.31812			  0.21306			 -0.05744
	88.00			  10.26651			  -0.04938			 -0.05536
	88.25			  10.21998			  -0.20503			 -0.30749
	88.50			  10.33661			  0.01746			 -0.08523
	88.75			  10.54319			  -0.12256			 -0.16847
	89.00			  10.63760			  -0.16626			 -0.22474
	89.25			  10.62473			  0.06335			 -0.13836
	89.50			  10.67884			  -0.15519			 -0.22937
	89.75			  10.61403			  0.06532			 -0.05285
	90.00			  10.57934			  0.25716			 -0.20915
	90.25			  10.42489			  0.40094			 -0.16009
	90.50			  10.24127			  0.26329			 -0.28225
	90.75			  10.35375			  0.24945			 -0.17321
	91.00			  10.63989			  0.45592			 -0.05847
	91.25			  10.64051			  0.46620			 -0.06358
	91.50			  10.48503			  0.30660			 -0.09493
	91.75			  10.63553			  0.41083			 0.04091
	92.00			  10.65941			  0.57774			 0.21312
	92.25			  10.48347			  0.61394			 0.23342
	92.50			  10.40443			  0.45928			 0.30437
	92.75			  10.34731			  0.42744			 0.00155
	93.00			  10.27855			  0.49646			 -0.10494
	93.25			  10.23950			  0.33943			 0.08650
	93.50			  10.12172			  0.09974			 -0.05484
	93.75			  10.26713			  0.17647			 0.06691
	94.00			  10.24397			  0.22730			 0.29902
	94.25			  10.13097			  0.20772			 0.30832
	94.50			  10.25425			  0.36257			 0.31745
	94.75			  10.35697			  0.65744			 0.22169
	95.00			  10.34804			  0.76266			 0.33807
	95.25			  10.40516			  0.83128			 0.32188
	95.50			  10.22548			  0.79687			 0.46350
	95.75			  10.13637			  0.83366			 0.43458
	96.00			  10.03770			  0.93788			 0.44946
	96.25			  10.14862			  0.93847			 0.44607
	96.50			  10.18196			  0.82258			 0.44495
	96.75			  10.24947			  0.74407			 0.57684
	97.00			  10.37224			  0.58842			 0.25591
	97.25			  10.35323			  0.59317			 0.06819
	97.50			  10.17106			  0.28445			 0.25424
	97.75			  10.27004			  0.21741			 0.21575
	98.00			  10.28894			  0.23758			 0.22596
	98.25			  10.30161			  0.41775			 0.24183
	98.50			  10.25103			  0.22235			 0.31235
	98.75			  9.98307			  0.05049			 0.11453
	99.00			  9.99511			  0.16599			 0.31530
	99.25			  10.10085			  0.28861			 0.50162
	99.50			  10.04601			  0.24351			 0.26417
	99.75			  10.01755			  0.21701			 0.15980
	100.00			  9.94516			  0.27081			 0.32451
	100.25			  10.14540			  0.22354			 0.31394
	100.50			  9.86103			  -0.07054			 -0.01209
	100.75			  9.80650			  -0.06580			 -0.10709
	101.00			  9.75000			  0.16243			 0.24072
	101.25			  9.76122			  0.26764			 0.15713
	101.50			  9.96011			  0.14305			 0.02715
	101.75			  10.03874			  -0.00152			 0.09826
	102.00			  9.99314			  -0.05907			 -0.02749
	102.25			  9.86840			  0.10844			 -0.10370
	102.50			  9.94048			  0.20000			 -0.26331
	102.75			  9.97039			  0.59258			 -0.30442
	103.00			  9.95700			  0.44089			 -0.16556
	103.25			  9.94910			  0.39026			 -0.16675
	103.50			  9.81356			  0.36494			 -0.30371
	103.75			  9.98473			  0.14938			 -0.37298
	104.00			  9.99293			  -0.04543			 -0.32397
	104.25			  10.10095			  -0.00429			 -0.31184
	104.50			  10.17365			  0.23620			 -0.12049
	104.75			  10.04372			  0.17607			 -0.19307
	105.00			  9.92667			  0.05128			 0.13248
	105.25			  9.98847			  0.45058			 0.04558
	105.50			  10.18404			  0.49389			 -0.09696
	105.75			  10.05120			  0.17687			 -0.20340
	106.00			  10.15278			  0.16579			 -0.19292
	106.25			  10.11746			  0.07897			 -0.03770
	106.50			  10.31594			  0.11655			 -0.03897
	106.75			  10.42448			  0.11180			 -0.01241
	107.00			  10.35406			  0.21345			 0.16387
	107.25			  10.19235			  0.29078			 -0.05780
	107.50			  10.27481			  0.26191			 0.03529
	107.75			  10.40069			  0.02261			 -0.02158
	108.00			  10.39353			  0.04693			 -0.07291
	108.25			  10.50248			  -0.03593			 0.08953
	108.50			  10.54787			  0.18221			 0.27095
	108.75			  10.45117			  0.27931			 0.29049
	109.00			  10.44276			  0.43851			 0.25990
	109.25			  10.31366			  0.26705			 0.36467
	109.50			  10.31574			  0.26962			 -0.03223
	109.75			  10.37514			  0.34042			 -0.00870
	110.00			  10.43912			  0.27318			 0.02249
	110.25			  10.62774			  0.52751			 -0.21577
	110.50			  10.57113			  0.46739			 -0.12667
	110.75			  10.70293			  0.31985			 -0.01425
	111.00			  10.62369			  0.36158			 0.12506
	111.25			  10.57549			  0.51584			 0.19374
	111.50			  10.50611			  0.35664			 0.08311
	111.75			  10.51982			  0.34853			 -0.00224
	112.00			  10.50622			  0.26883			 -0.09178
	112.25			  10.55971			  0.33627			 -0.04412
	112.50			  10.59035			  0.42566			 -0.00483
	112.75			  10.54517			  0.37978			 -0.13429
	113.00			  10.51733			  0.15353			 -0.06992
	113.25			  10.33557			  0.38551			 -0.12859
	113.50			  10.16773			  -0.07213			 -0.37673
	113.75			  10.22091			  -0.26119			 -0.02446
	114.00			  10.04434			  -0.37827			 -0.07080
	114.25			  10.03469			  -0.53451			 0.00171
	114.50			  9.93456			  -0.32250			 -0.03542
	114.75			  10.07426			  -0.48032			 -0.13780
	115.00			  10.21073			  -0.46410			 -0.16452
	115.25			  10.18653			  -0.35889			 -0.18566
	115.50			  10.35271			  -0.20522			 -0.10171
	115.75			  10.35001			  -0.33377			 -0.01987
	116.00			  10.48212			  -0.43444			 -0.26323
	116.25			  10.32560			  -0.36878			 -0.03961
	116.50			  10.27159			  -0.39805			 -0.13357
	116.75			  10.32955			  -0.31419			 -0.14669
	117.00			  10.32758			  -0.27820			 -0.26004
	117.25			  10.13896			  -0.28987			 -0.41960
	117.50			  10.16607			  -0.09250			 -0.34032
	117.75			  10.43237			  -0.14748			 -0.22885
	118.00			  10.55898			  -0.20265			 -0.21218
	118.25			  10.62379			  -0.08814			 -0.08854
	118.50			  10.43383			  -0.26159			 -0.16057
	118.75			  10.39322			  -0.29382			 -0.12548
	119.00			  10.61891			  -0.29303			 -0.09528
	119.25			  10.53873			  -0.16349			 -0.09365
	119.50			  10.51100			  -0.15024			 -0.20572
	119.75			  10.69556			  -0.13482			 -0.27623
	120.00			  10.84346			  0.09756			 -0.16476
	120.25			  11.08878			  0.11536			 0.03130
	120.50			  11.07756			  -0.05709			 -0.02689
	120.75			  11.03924			  -0.01576			 -0.05185
	121.00			  10.91606			  -0.05393			 0.27916
	121.25			  10.91211			  -0.08716			 0.11354
	121.50			  11.14331			  0.08629			 0.32650
	121.75			  11.02844			  0.21108			 0.31745
	122.00			  10.79485			  0.21879			 0.18277
	122.25			  10.83421			  -0.01082			 0.09056
	122.50			  10.84678			  -0.02090			 0.13320
	122.75			  10.76837			  -0.04780			 0.14137
	123.00			  10.68424			  -0.28216			 0.29472
	123.25			  10.73783			  -0.15301			 0.40216
	123.50			  10.95708			  0.28584			 0.40423
	123.75			  10.67811			  0.15175			 0.09655
	124.00			  10.41555			  0.34042			 0.20291
	124.25			  10.58837			  0.34873			 0.15354
	124.50			  10.69836			  0.31115			 0.30880
	124.75			  10.71425			  -0.01853			 0.38306
	125.00			  10.71841			  -0.05551			 0.58346
	125.25			  10.67333			  -0.05472			 0.48675
	125.50			  10.67458			  -0.18861			 0.35003
	125.75			  10.52304			  -0.27187			 0.34872
	126.00			  10.36632			  -0.09428			 0.29224
	126.25			  10.47755			  -0.05215			 0.27701
	126.50			  10.44743			  -0.20166			 0.41217
	126.75			  10.31075			  -0.21709			 0.17515
	127.00			  10.09441			  -0.19019			 0.13427
	127.25			  10.27814			  -0.35810			 0.33711
	127.50			  10.15600			  -0.43523			 0.30728
	127.75			  10.04050			  -0.28473			 0.19605
	128.00			  10.22122			  -0.50346			 0.38046
	128.25			  10.14623			  -0.27148			 0.15936
	128.50			  10.28541			  0.11002			 0.13419
	128.75			  10.06221			  -0.09032			 0.43582
	129.00			  9.99875			  -0.23865			 0.29292
	129.25			  10.20803			  -0.21808			 0.33069
	129.50			  10.33225			  -0.46470			 0.12985
	129.75			  10.25643			  -0.48447			 -0.05114
	130.00			  10.11964			  -0.69134			 0.05088
	130.25			  10.10188			  -0.72061			 0.13515
	130.50			  10.12691			  -0.78390			 0.16243
	130.75			  10.25799			  -0.69589			 0.13491
	131.00			  10.22133			  -0.52383			 -0.03275
	131.25			  10.28312			  -0.57485			 -0.01440
	131.50			  10.37836			  -0.81989			 -0.11483
	131.75			  10.18529			  -0.97494			 -0.11535
	132.00			  10.14364			  -1.09499			 -0.17401
	132.25			  10.25425			  -1.13949			 -0.06234
	132.50			  10.46343			  -1.11200			 -0.06486
	132.75			  10.29392			  -1.18992			 -0.09269
	133.00			  10.13855			  -0.97969			 0.09132
	133.25			  10.11175			  -0.90711			 0.50162
	133.50			  10.04964			  -0.76353			 0.26006
	133.75			  10.17220			  -0.78014			 0.26249
	134.00			  10.21489			  -0.73742			 0.12434
	134.25			  10.31324			  -0.62410			 0.01742
	134.50			  10.51588			  -0.52304			 -0.03893
	134.75			  10.53239			  -0.45916			 -0.01887
	135.00			  10.45501			  -0.46747			 -0.00866
	135.25			  10.34295			  -0.52680			 -0.14131
	135.50			  10.39810			  -0.32824			 -0.33146
	135.75			  10.35697			  -0.33437			 -0.17417
	136.00			  10.42791			  -0.36561			 -0.10035
	136.25			  10.45772			  -0.34228			 -0.08408
	136.50			  10.25757			  -0.31973			 -0.08687
	136.75			  10.19505			  -0.62509			 -0.21186
	137.00			  10.49116			  -0.45857			 -0.22729
	137.25			  10.41897			  -0.23509			 -0.35160
	137.50			  10.45948			  -0.14431			 -0.39906
	137.75			  10.35375			  -0.23726			 -0.23351
	138.00			  10.27793			  -0.28868			 -0.26299
	138.25			  10.28437			  -0.31914			 -0.00364
	138.50			  10.26370			  -0.27939			 -0.01197
	138.75			  10.27616			  -0.25585			 0.04901
	139.00			  10.12650			  -0.35454			 0.19725
	139.25			  10.39685			  -0.21531			 0.15326
	139.50			  10.52813			  -0.29481			 0.22090
	139.75			  10.46550			  -0.37590			 0.19374
	140.00			  10.56095			  -0.35118			 0.15126
	140.25			  10.49884			  -0.57228			 0.34270
	140.50			  10.43175			  -0.43721			 0.27019
	140.75			  10.36663			  -0.73248			 0.27183
	141.00			  10.56376			  -0.83255			 0.08925
	141.25			  10.61860			  -0.78765			 -0.14418
	141.50			  10.61777			  -0.93519			 -0.42634
	141.75			  10.78363			  -0.84244			 -0.16081
	142.00			  10.75954			  -0.73801			 0.00845
	142.25			  10.80461			  -0.75977			 0.08905
	142.50			  10.80306			  -0.88575			 0.14580
	142.75			  10.74572			  -0.82483			 0.35450
	143.00			  10.96394			  -0.61381			 0.42557
	143.25			  11.04246			  -0.71211			 0.15234
	143.50			  11.01400			  -0.60294			 0.08139
	143.75			  10.99427			  -0.52680			 0.17216
	144.00			  10.89518			  -0.65317			 0.15106
	144.25			  11.01442			  -0.76214			 0.14688
	144.50			  11.04443			  -0.54222			 0.09300
	144.75			  10.72765			  -0.42969			 0.15968
	145.00			  10.75393			  -0.28710			 0.20375
	145.25			  10.84543			  -0.22322			 0.10680
	145.50			  10.70044			  -0.45560			 0.02308
	145.75			  10.84491			  -0.21630			 -0.02222
	146.00			  10.68652			  -0.23746			 0.10476
	146.25			  10.65796			  -0.23311			 0.16586
	146.50			  10.67801			  -0.15697			 -0.18753
	146.75			  10.72059			  -0.19197			 0.03920
	147.00			  10.87285			  -0.45679			 -0.18968
	147.25			  10.63522			  -0.52027			 -0.16468
	147.50			  10.38885			  -0.70400			 0.01515
	147.75			  10.77449			  -0.80624			 -0.01608
	148.00			  10.93641			  -0.77025			 0.11397
	148.25			  10.90235			  -0.72595			 -0.05784
	148.50			  10.82289			  -0.75265			 -0.10932
	148.75			  10.64487			  -0.79378			 -0.01086
	149.00			  10.68787			  -0.69233			 0.04039
	149.25			  10.60188			  -0.33654			 0.04314
	149.50			  10.56262			  -0.38361			 0.05475
	149.75			  10.52647			  -0.33694			 0.12877
	150.00			  10.59325			  -0.27701			 0.12446
	150.25			  10.63044			  -0.14866			 0.03126
	150.50			  10.67115			  -0.30886			 0.33480
	150.75			  10.80181			  -0.25348			 0.16219
	151.00			  10.66482			  -0.13719			 -0.09505
	151.25			  10.61673			  0.09024			 -0.00623
	151.50			  10.66201			  -0.10693			 0.04003
	151.75			  10.53488			  0.01806			 0.09200
	152.00			  10.48534			  -0.25368			 0.10101
	152.25			  10.58682			  -0.24379			 0.11433
	152.50			  10.65557			  -0.20977			 0.32926
	152.75			  10.69244			  -0.12117			 0.28012
	153.00			  10.75466			  -0.02565			 0.17228
	153.25			  10.75486			  -0.28611			 -0.15870
	153.50			  10.86132			  -0.43167			 0.03848
	153.75			  10.73991			  -0.42771			 0.25440
	154.00			  10.88168			  -0.50287			 0.24873
	154.25			  10.82954			  -0.80783			 0.17523
	154.50			  10.91782			  -0.55013			 0.02169
	154.75			  10.91024			  -0.43404			 -0.01440
	155.00			  10.93288			  -0.37372			 -0.15598
	155.25			  10.89082			  -0.37966			 -0.20312
	155.50			  10.75123			  -0.32408			 -0.12823
	155.75			  10.74583			  -0.47261			 0.13455
	156.00			  10.72381			  -0.53807			 0.26197
	156.25			  10.87379			  -0.71705			 -0.08065
	156.50			  11.02065			  -0.83512			 0.23876
	156.75			  11.02137			  -0.71685			 0.29021
	157.00			  11.04505			  -0.62133			 0.13459
	157.25			  11.02750			  -0.80723			 0.23765
	157.50			  11.17800			  -0.70617			 0.24459
	157.75			  10.84294			  -0.69431			 0.25268
	158.00			  10.70896			  -0.82029			 0.03545
	158.25			  10.73825			  -0.88278			 -0.22502
	158.50			  10.71228			  -0.79260			 -0.01042
	158.75			  10.72589			  -0.61045			 0.10177
	159.00			  10.80794			  -0.65297			 0.03844
	159.25			  10.78218			  -0.63597			 -0.03538
	159.50			  10.85270			  -0.45125			 0.16315
	159.75			  10.58193			  -0.36601			 0.01754
	160.00			  10.52471			  -0.39469			 0.07282
	160.25			  10.49095			  -0.27088			 -0.00216
	160.50			  10.63220			  -0.15618			 -0.17684
	160.75			  10.51006			  -0.09032			 -0.21134
	161.00			  10.57529			  -0.25111			 -0.17744
	161.25			  10.53623			  -0.24695			 0.12263
	161.50			  10.57986			  -0.37570			 0.13499
	161.75			  10.78343			  -0.33575			 0.32092
	162.00			  10.70584			  -0.36166			 0.01866
	162.25			  10.58567			  -0.45778			 -0.23387
	162.50			  10.51733			  -0.36561			 -0.24660
	162.75			  10.49822			  -0.46747			 -0.47887
	163.00			  10.65869			  -0.41051			 -0.61825
	163.25			  10.56417			  -0.22441			 -0.31559
	163.50			  10.31210			  -0.34762			 -0.28129
	163.75			  10.24386			  -0.43642			 -0.41163
	164.00			  9.95554			  -0.25447			 -0.75050
	164.25			  10.14530			  -0.27484			 -0.60489
	164.50			  10.25487			  -0.39627			 -0.42108
	164.75			  10.30556			  -0.25941			 -0.31655
	165.00			  10.25518			  -0.36324			 -0.10685
	165.25			  10.08423			  -0.19692			 -0.49721
	165.50			  10.08610			  0.07620			 -0.49725
	165.75			  9.94983			  0.11694			 -0.39033