--------------TurbSim v2.00.* User Time Series Input File-----------------------
     Time series input from low-res turbsim run
--------------------------------------------------------------------------------
          3 nComp - Number of velocity components in the file
          1 nPoints - Number of time series points contained in this file (-)
          1 RefPtID - Index of the reference point (1-nPoints)
     Pointyi Pointzi ! nPoints listed in order of increasing height
       (m)     (m)
       -4.58133   94.00000
--------Time Series-------------------------------------------------------------
Elapsed Time         Point01u             Point01v           Point01w
         (s)            (m/s)                (m/s)              (m/s)
	0.00			  10.43128			  0.33204			 -0.14139
	0.25			  10.48415			  0.34995			 -0.01615
	0.50			  10.50995			  0.65132			 0.22171
	0.75			  10.54608			  0.53328			 0.07113
	1.00			  10.48521			  0.38459			 0.13680
	1.25			  10.48266			  0.51178			 0.13229
	1.50			  10.63413			  0.44311			 0.10400
	1.75			  10.53233			  0.37981			 0.20510
	2.00			  10.66281			  0.20464			 0.26551
	2.25			  10.59373			  0.28267			 0.15134
	2.50			  10.52935			  0.52313			 0.29655
	2.75			  10.70502			  0.19748			 0.20277
	3.00			  10.57497			  0.27192			 -0.10367
	3.25			  10.51581			  0.23808			 -0.14501
	3.50			  10.31242			  0.11248			 -0.11294
	3.75			  10.20518			  0.16025			 -0.17747
	4.00			  10.16681			  0.21698			 -0.27464
	4.25			  10.03484			  0.17021			 -0.12749
	4.50			  10.28908			  0.26894			 0.04142
	4.75			  10.33321			  0.00241			 0.12729
	5.00			  10.38086			  0.10910			 0.16062
	5.25			  10.22458			  0.14632			 0.15581
	5.50			  9.97579			  0.22853			 0.24084
	5.75			  10.14197			  0.14353			 0.31193
	6.00			  10.17065			  0.06352			 -0.06442
	6.25			  10.14677			  0.13916			 -0.17044
	6.50			  10.20497			  0.16304			 -0.21160
	6.75			  10.22576			  -0.02526			 -0.18216
	7.00			  10.13344			  0.05754			 0.01596
	7.25			  10.11724			  0.18932			 0.12088
	7.50			  10.23770			  0.33443			 0.31109
	7.75			  10.06042			  0.26516			 0.16536
	8.00			  10.10914			  -0.06149			 0.06719
	8.25			  10.12790			  -0.25775			 0.19098
	8.50			  9.88731			  -0.37281			 0.04425
	8.75			  9.77027			  -0.42595			 0.00591
	9.00			  9.70364			  -0.31170			 0.08911
	9.25			  9.33386			  0.02868			 0.03524
	9.50			  9.30273			  -0.06010			 0.01809
	9.75			  9.46614			  -0.19366			 -0.11718
	10.00			  9.57818			  -0.20162			 -0.14097
	10.25			  9.36935			  -0.25377			 -0.24238
	10.50			  9.49567			  -0.36564			 -0.19427
	10.75			  9.26745			  -0.37659			 -0.21485
	11.00			  9.13079			  -0.37818			 -0.19247
	11.25			  9.17236			  -0.24322			 0.01023
	11.50			  9.24581			  -0.25457			 -0.14551
	11.75			  9.09582			  -0.11961			 -0.01428
	12.00			  9.01140			  -0.13832			 0.34122
	12.25			  9.00084			  -0.12160			 -0.01585
	12.50			  9.12620			  -0.06010			 0.16288
	12.75			  9.24762			  -0.04795			 0.43900
	13.00			  9.36061			  -0.20859			 0.37169
	13.25			  9.34931			  -0.06527			 0.30697
	13.50			  9.46103			  -0.16022			 0.36290
	13.75			  9.53596			  -0.09493			 0.25107
	14.00			  9.65844			  -0.16619			 0.36344
	14.25			  9.55206			  -0.17316			 0.34935
	14.50			  9.36754			  -0.22153			 0.17517
	14.75			  9.06651			  -0.19625			 -0.02791
	15.00			  9.03336			  0.03167			 -0.04238
	15.25			  9.03229			  0.06431			 -0.02360
	15.50			  8.86834			  0.23410			 0.20503
	15.75			  8.87751			  0.17041			 -0.02845
	16.00			  9.08953			  0.15727			 0.15394
	16.25			  9.17385			  0.02331			 0.31716
	16.50			  9.27022			  -0.05174			 0.33515
	16.75			  9.31787			  0.00420			 0.56996
	17.00			  9.43992			  -0.02705			 0.76105
	17.25			  9.48842			  -0.17495			 0.71528
	17.50			  9.23152			  0.36388			 0.32125
	17.75			  9.26531			  0.16762			 0.29219
	18.00			  9.28045			  0.03047			 0.21037
	18.25			  9.45474			  0.04043			 0.11626
	18.50			  9.49684			  -0.10508			 0.22576
	18.75			  9.52722			  -0.14629			 0.07911
	19.00			  9.47712			  -0.18371			 0.16601
	19.25			  9.60216			  -0.49025			 0.21942
	19.50			  9.58447			  -0.37699			 -0.01883
	19.75			  9.52562			  -0.56111			 0.18300
	20.00			  9.61261			  -0.62700			 0.18575
	20.25			  9.55067			  -0.75180			 -0.18278
	20.50			  9.59086			  -0.61804			 -0.15563
	20.75			  9.62753			  -0.85969			 -0.39735
	21.00			  9.66026			  -0.88357			 -0.18759
	21.25			  9.78434			  -0.85173			 -0.44263
	21.50			  10.05744			  -1.05297			 -0.48692
	21.75			  10.10040			  -1.08362			 -0.35738
	22.00			  9.97088			  -0.88238			 -0.52106
	22.25			  9.92984			  -1.09437			 -0.30595
	22.50			  9.62199			  -0.82684			 -0.34787
	22.75			  9.51763			  -0.78027			 -0.33775
	23.00			  9.69778			  -0.61087			 -0.27525
	23.25			  9.73637			  -0.61426			 -0.27636
	23.50			  9.60770			  -0.71259			 -0.15017
	23.75			  9.65717			  -0.52369			 -0.18430
	24.00			  9.61495			  -0.61505			 -0.14624
	24.25			  9.54865			  -0.32503			 -0.23065
	24.50			  9.75534			  -0.23546			 -0.05571
	24.75			  9.87558			  -0.16838			 -0.10393
	25.00			  9.91630			  -0.40545			 0.06319
	25.25			  10.02280			  -0.22193			 -0.09874
	25.50			  9.93965			  -0.10050			 -0.25318
	25.75			  9.85235			  -0.10011			 -0.18129
	26.00			  9.85554			  -0.06666			 0.14627
	26.25			  9.94157			  -0.15484			 0.03875
	26.50			  9.97557			  -0.02068			 -0.00104
	26.75			  9.90095			  0.05476			 0.19273
	27.00			  9.98804			  0.08481			 0.19678
	27.25			  9.94604			  -0.05651			 0.29334
	27.50			  9.74458			  0.12462			 0.37237
	27.75			  9.82932			  0.24047			 0.14695
	28.00			  9.87548			  0.12761			 0.04753
	28.25			  9.62529			  -0.22451			 -0.03620
	28.50			  9.60344			  -0.23128			 0.01630
	28.75			  9.72134			  -0.34096			 0.15860
	29.00			  9.73232			  -0.20222			 0.08487
	29.25			  9.65301			  -0.28881			 0.06933
	29.50			  9.64022			  -0.26850			 -0.04376
	29.75			  9.62604			  -0.36425			 0.24844
	30.00			  9.65855			  -0.41958			 0.26608
	30.25			  9.72485			  -0.47492			 0.34798
	30.50			  9.63691			  -0.32802			 0.34030
	30.75			  9.48235			  -0.53225			 0.28395
	31.00			  9.39973			  -0.44267			 0.19136
	31.25			  9.51838			  -0.43790			 -0.02723
	31.50			  9.34654			  -0.34056			 -0.12337
	31.75			  9.39568			  -0.45919			 -0.15406
	32.00			  9.42819			  -0.42098			 0.07445
	32.25			  9.47041			  -0.26532			 0.09117
	32.50			  9.33268			  -0.48726			 0.17147
	32.75			  9.41295			  -0.23526			 0.25497
	33.00			  9.38492			  -0.12300			 0.26974
	33.25			  9.69298			  0.05496			 0.40983
	33.50			  9.81045			  -0.19704			 0.32396
	33.75			  9.86929			  -0.36445			 0.38001
	34.00			  9.70439			  -0.18888			 0.27547
	34.25			  9.80065			  0.06571			 0.09732
	34.50			  9.73189			  0.04560			 0.04753
	34.75			  9.61399			  -0.08995			 0.34756
	35.00			  9.48714			  -0.27149			 0.26478
	35.25			  9.41380			  -0.27826			 0.24821
	35.50			  9.41391			  -0.01053			 0.16406
	35.75			  9.33588			  -0.19704			 0.50868
	36.00			  9.30475			  -0.21177			 0.59451
	36.25			  9.20839			  -0.16400			 0.70382
	36.50			  9.36669			  0.07765			 0.78541
	36.75			  9.36498			  0.21380			 0.59989
	37.00			  9.33908			  0.17698			 0.53915
	37.25			  9.33364			  0.27551			 0.49012
	37.50			  9.40304			  0.29262			 0.47917
	37.75			  9.34782			  0.12303			 0.48363
	38.00			  9.37458			  0.17717			 0.37325
	38.25			  9.55174			  0.45605			 0.39368
	38.50			  9.55696			  0.54124			 0.50097
	38.75			  9.33428			  0.63917			 0.21660
	39.00			  9.33844			  0.62146			 0.22091
	39.25			  9.60781			  0.38578			 0.38180
	39.50			  9.48181			  0.19927			 0.14123
	39.75			  9.37788			  0.38140			 0.05295
	40.00			  9.19773			  0.40389			 0.24584
	40.25			  9.49023			  0.21340			 0.12462
	40.50			  9.59619			  0.13438			 -0.16586
	40.75			  9.66409			  -0.05134			 -0.04185
	41.00			  9.61122			  0.02808			 0.10190
	41.25			  9.61868			  0.02928			 0.06780
	41.50			  9.71110			  0.07645			 0.04734
	41.75			  9.66271			  0.12224			 0.12389
	42.00			  9.36018			  -0.02566			 0.06162
	42.25			  9.35048			  0.19768			 0.15879
	42.50			  9.47478			  0.11328			 -0.01909
	42.75			  9.31552			  0.01674			 -0.01673
	43.00			  9.28162			  0.05177			 0.07544
	43.25			  9.30721			  0.04122			 0.27627
	43.50			  9.36040			  -0.04517			 0.30067
	43.75			  9.19059			  -0.28682			 0.28715
	44.00			  9.17566			  -0.31767			 0.37909
	44.25			  9.17343			  -0.46537			 0.25191
	44.50			  9.33663			  -0.47074			 0.15558
	44.75			  9.39590			  -0.29378			 -0.02585
	45.00			  9.34142			  -0.39948			 0.07872
	45.25			  9.52189			  -0.29139			 0.17891
	45.50			  9.49194			  -0.15166			 0.13542
	45.75			  9.43470			  -0.25059			 0.07804
	46.00			  9.38556			  -0.16858			 0.15898
	46.25			  9.72016			  -0.06149			 0.26157
	46.50			  9.81568			  0.19529			 0.04345
	46.75			  9.98783			  0.23689			 0.38673
	47.00			  9.78007			  0.06869			 0.45523
	47.25			  9.72347			  0.05456			 0.27287
	47.50			  9.77080			  -0.00138			 0.60692
	47.75			  9.68232			  0.02171			 0.50498
	48.00			  9.75129			  0.05973			 0.31735
	48.25			  9.76803			  0.12642			 0.14932
	48.50			  9.88624			  0.30895			 0.09285
	48.75			  9.89882			  0.24804			 0.07284
	49.00			  9.72134			  0.16543			 -0.00252
	49.25			  9.82847			  0.53766			 0.04612
	49.50			  9.92536			  0.41862			 0.02802
	49.75			  9.83103			  0.35115			 0.19033
	50.00			  9.91716			  0.41823			 0.13363
	50.25			  10.05456			  0.28327			 0.05093
	50.50			  10.13131			  0.31372			 -0.20156
	50.75			  10.14965			  0.11985			 0.15654
	51.00			  10.28385			  0.09079			 0.13645
	51.25			  10.35271			  0.02649			 0.10977
	51.50			  10.03132			  0.14831			 0.15887
	51.75			  9.85128			  0.11189			 0.32491
	52.00			  9.91236			  0.39195			 0.57943
	52.25			  9.89456			  0.33542			 0.51192
	52.50			  9.87985			  0.19708			 0.55679
	52.75			  9.69224			  0.41564			 0.35027
	53.00			  9.88571			  0.46341			 0.33408
	53.25			  9.88475			  0.34517			 0.32461
	53.50			  9.94679			  0.08740			 0.32522
	53.75			  9.79574			  -0.18052			 0.50769
	54.00			  9.94850			  -0.14390			 0.34794
	54.25			  10.07076			  -0.18411			 0.21598
	54.50			  10.09976			  -0.43949			 0.10457
	54.75			  10.01778			  -0.34335			 0.33591
	55.00			  9.98932			  -0.27487			 0.39112
	55.25			  10.10978			  -0.17077			 0.21289
	55.50			  10.10040			  0.09716			 -0.00237
	55.75			  10.36337			  0.04062			 0.20633
	56.00			  10.47253			  -0.06806			 0.37577
	56.25			  10.50568			  -0.04377			 0.25539
	56.50			  10.31935			  0.05058			 0.09885
	56.75			  10.28694			  -0.17117			 0.13989
	57.00			  10.39557			  -0.36723			 0.09774
	57.25			  10.28044			  -0.14171			 0.03753
	57.50			  10.26925			  -0.09573			 0.38459
	57.75			  10.33630			  -0.30851			 0.39521
	58.00			  10.10754			  -0.14111			 0.64831
	58.25			  9.97429			  -0.10130			 0.39517
	58.50			  9.92856			  0.02371			 0.33236
	58.75			  9.68520			  0.19011			 0.32022
	59.00			  9.70034			  0.22634			 0.40624
	59.25			  9.76206			  0.09377			 0.38039
	59.50			  9.72763			  0.10352			 0.24611
	59.75			  9.88262			  0.30258			 0.34549
	60.00			  9.99892			  0.36727			 0.41097
	60.25			  10.04987			  0.15050			 0.40578
	60.50			  10.25603			  0.03923			 0.78965
	60.75			  10.31583			  0.04062			 0.50834
	61.00			  10.42595			  0.31989			 0.18365
	61.25			  10.78166			  0.29860			 0.31167
	61.50			  10.70022			  0.46540			 0.33454
	61.75			  10.47274			  0.48113			 0.25489
	62.00			  10.32393			  0.65311			 0.38413
	62.25			  10.35495			  0.69531			 0.20507
	62.50			  10.38970			  0.52034			 0.24867
	62.75			  10.30645			  0.64256			 0.21247
	63.00			  10.03527			  0.79782			 0.23366
	63.25			  10.27639			  0.62584			 0.24115
	63.50			  10.24697			  0.76478			 0.40521
	63.75			  10.37137			  0.59837			 0.52945
	64.00			  10.31892			  0.51198			 0.52689
	64.25			  10.28140			  0.46421			 0.56316
	64.50			  10.14133			  0.35771			 0.47413
	64.75			  10.19165			  0.50541			 0.39211
	65.00			  10.18589			  0.35274			 0.16772
	65.25			  10.23407			  0.24804			 0.29994
	65.50			  10.09432			  0.08442			 0.31178
	65.75			  10.05509			  -0.05134			 0.17234
	66.00			  10.02599			  0.10233			 0.45091
	66.25			  10.03473			  0.23311			 0.55557
	66.50			  9.87633			  0.26734			 0.64621
	66.75			  9.79457			  0.39434			 0.45026
	67.00			  9.71483			  0.23191			 0.46534
	67.25			  9.74159			  0.15110			 0.51444
	67.50			  9.65994			  0.20066			 0.64430
	67.75			  9.70833			  -0.05910			 0.51471
	68.00			  9.96854			  -0.07045			 0.65029
	68.25			  10.03132			  0.17737			 0.54812
	68.50			  10.14496			  0.40768			 0.60161
	68.75			  10.11170			  0.36050			 0.80660
	69.00			  9.95606			  0.26177			 0.88793
	69.25			  10.07759			  0.14134			 0.79954
	69.50			  9.92206			  0.34418			 0.41586
	69.75			  9.79628			  0.31253			 0.09407
	70.00			  9.80299			  -0.00874			 0.23813
	70.25			  9.82346			  0.14115			 0.36940
	70.50			  9.83113			  0.01335			 0.33133
	70.75			  10.03772			  0.11806			 0.27093
	71.00			  10.11116			  0.20683			 0.15150
	71.25			  10.19943			  0.54323			 0.15562
	71.50			  10.23151			  0.31372			 0.48997
	71.75			  10.07098			  0.13816			 0.36607
	72.00			  10.13621			  0.14234			 0.29265
	72.25			  9.92451			  0.03306			 0.31468
	72.50			  10.06224			  0.17757			 0.05738
	72.75			  10.17470			  -0.04935			 0.13909
	73.00			  10.00446			  -0.02486			 0.22851
	73.25			  9.67912			  0.04759			 0.28250
	73.50			  9.99956			  0.03963			 0.25848
	73.75			  9.99529			  0.28247			 0.44706
	74.00			  10.03559			  0.35771			 0.12691
	74.25			  9.94732			  0.30039			 0.19399
	74.50			  9.68531			  0.38678			 0.42338
	74.75			  9.74436			  0.06391			 0.33832
	75.00			  9.81781			  -0.04676			 0.33526
	75.25			  9.70098			  0.12980			 0.18998
	75.50			  9.50196			  0.02410			 0.27253
	75.75			  9.65823			  -0.00416			 0.46870
	76.00			  9.65237			  0.13736			 0.66102
	76.25			  9.66996			  0.01913			 0.48466
	76.50			  9.68584			  -0.25019			 0.16326
	76.75			  9.73733			  -0.00974			 0.26593
	77.00			  9.90682			  0.18454			 0.22690
	77.25			  9.91385			  0.20783			 0.04868
	77.50			  9.71515			  0.33681			 0.01580
	77.75			  9.87910			  0.13657			 0.16154
	78.00			  9.90394			  0.10830			 0.17704
	78.25			  9.84520			  0.07466			 -0.02517
	78.50			  9.96523			  0.22853			 0.06941
	78.75			  10.22096			  0.19529			 -0.03941
	79.00			  10.28044			  0.22256			 0.07834
	79.25			  10.34696			  0.38379			 -0.13982
	79.50			  10.37393			  0.06889			 -0.13612
	79.75			  10.38373			  -0.07065			 -0.31523
	80.00			  10.20113			  0.14194			 -0.05636
	80.25			  10.10402			  0.30138			 -0.07869
	80.50			  10.29622			  0.09118			 0.12027
	80.75			  10.53659			  -0.11026			 0.20911
	81.00			  10.27628			  0.10333			 0.26405
	81.25			  10.26200			  0.26615			 0.26825
	81.50			  10.19985			  0.17837			 0.14314
	81.75			  10.24377			  -0.05870			 0.19877
	82.00			  10.22991			  -0.03044			 0.27150
	82.25			  10.03367			  0.02948			 0.28272
	82.50			  10.01981			  -0.15285			 0.16688
	82.75			  10.17619			  -0.14091			 0.25092
	83.00			  10.09549			  -0.03840			 -0.03040
	83.25			  10.17203			  -0.10429			 0.05261
	83.50			  10.09240			  -0.30891			 0.19590
	83.75			  10.09400			  -0.39112			 0.01695
	84.00			  10.01832			  -0.23247			 0.07139
	84.25			  9.98996			  -0.33140			 0.25249
	84.50			  10.05712			  -0.36305			 0.42838
	84.75			  10.10669			  -0.71816			 0.48673
	85.00			  10.17907			  -0.56668			 0.43400
	85.25			  10.42200			  -0.31030			 0.38119
	85.50			  10.36156			  -0.16221			 0.20392
	85.75			  10.27650			  0.04859			 0.09831
	86.00			  10.31924			  -0.15863			 0.10179
	86.25			  10.06597			  -0.21615			 0.13500
	86.50			  10.03324			  -0.18590			 0.11985
	86.75			  10.06266			  -0.07702			 0.15574
	87.00			  10.07194			  0.06630			 0.29086
	87.25			  10.10690			  0.20683			 0.08514
	87.50			  10.12619			  0.27212			 0.12439
	87.75			  10.30080			  0.23729			 0.45225
	88.00			  10.23237			  0.19807			 0.36268
	88.25			  10.24196			  0.19648			 0.54419
	88.50			  10.67037			  0.18693			 0.51979
	88.75			  10.68455			  0.11388			 0.20785
	89.00			  10.58925			  -0.09035			 0.18441
	89.25			  10.56975			  0.02152			 0.31777
	89.50			  10.77623			  0.04401			 0.25787
	89.75			  10.67944			  0.00718			 0.30418
	90.00			  10.38768			  0.00838			 0.37077
	90.25			  10.25145			  -0.30752			 0.21766
	90.50			  10.23279			  -0.26512			 0.03050
	90.75			  10.37659			  -0.50199			 0.07567
	91.00			  10.07481			  -0.59754			 -0.01627
	91.25			  10.02557			  -0.45740			 0.20151
	91.50			  10.20028			  -0.37539			 0.00660
	91.75			  10.05584			  -0.27766			 -0.17548
	92.00			  10.00755			  -0.41401			 -0.15189
	92.25			  10.01576			  -0.24720			 -0.17831
	92.50			  10.07300			  -0.31807			 0.02974
	92.75			  10.02397			  -0.23725			 -0.08236
	93.00			  10.01555			  -0.33101			 -0.06277
	93.25			  10.04028			  -0.34633			 0.04700
	93.50			  10.05126			  -0.37062			 0.00019
	93.75			  10.04507			  -0.30473			 0.06975
	94.00			  10.01874			  -0.25039			 0.15913
	94.25			  9.88187			  -0.28980			 -0.04487
	94.50			  9.66846			  -0.04318			 0.16887
	94.75			  9.53170			  0.04023			 0.25039
	95.00			  9.67017			  -0.04338			 0.14287
	95.25			  9.55686			  -0.40067			 -0.10141
	95.50			  9.61261			  -0.29378			 -0.12054
	95.75			  9.64896			  -0.45501			 -0.09488
	96.00			  9.78156			  -0.23626			 0.29819
	96.25			  9.86556			  -0.43710			 0.34191
	96.50			  9.73711			  -0.54698			 0.41117
	96.75			  9.80534			  -0.39749			 0.29720
	97.00			  9.77794			  -0.14191			 0.18460
	97.25			  9.89317			  -0.02825			 -0.03425
	97.50			  9.95255			  0.07267			 -0.08828
	97.75			  9.92846			  0.25301			 -0.07156
	98.00			  9.68339			  0.24107			 0.01145
	98.25			  9.66527			  0.28685			 0.07918
	98.50			  9.76792			  0.38558			 0.11587
	98.75			  9.73594			  0.35274			 0.05349
	99.00			  9.55110			  0.26754			 0.13077
	99.25			  9.55579			  0.18295			 0.23439
	99.50			  9.61399			  0.13279			 0.00316
	99.75			  9.52573			  0.28964			 0.18681
	100.00			  9.59577			  0.30974			 0.09579
	100.25			  9.43662			  0.10094			 -0.11680
	100.50			  9.30998			  -0.08518			 0.01321
	100.75			  9.27075			  -0.16938			 0.11339
	101.00			  9.58074			  -0.28542			 -0.06335
	101.25			  9.60440			  -0.29518			 -0.06640
	101.50			  9.40719			  -0.01073			 0.00584
	101.75			  9.45399			  -0.09214			 -0.00214
	102.00			  9.49866			  -0.25258			 0.03096
	102.25			  9.45292			  -0.24044			 -0.03021
	102.50			  9.41849			  -0.07264			 -0.11573
	102.75			  9.36530			  0.04998			 -0.09954
	103.00			  9.35006			  -0.04676			 -0.18526
	103.25			  9.33194			  -0.01133			 -0.11474
	103.50			  9.44280			  -0.09652			 -0.01562
	103.75			  9.28397			  -0.37460			 0.07338
	104.00			  9.41913			  -0.29219			 0.11519
	104.25			  9.22672			  -0.23048			 0.27238
	104.50			  9.34260			  -0.13355			 0.18082
	104.75			  9.48128			  0.05277			 0.04742
	105.00			  9.32149			  -0.17654			 0.05200
	105.25			  9.35923			  -0.16639			 -0.05273
	105.50			  9.43672			  -0.26094			 0.01538
	105.75			  9.52104			  -0.18291			 0.05765
	106.00			  9.36775			  -0.11523			 -0.05720
	106.25			  9.11512			  -0.03183			 -0.10313
	106.50			  9.27906			  -0.12877			 0.12065
	106.75			  9.30465			  -0.19804			 0.07044
	107.00			  9.19570			  -0.13793			 0.25749
	107.25			  9.16586			  -0.09095			 0.15543
	107.50			  9.27107			  0.13637			 0.08239
	107.75			  9.15712			  0.17200			 0.29735
	108.00			  9.23365			  0.02191			 0.47760
	108.25			  9.24154			  0.07625			 0.37734
	108.50			  9.23387			  0.21061			 0.00458
	108.75			  9.33183			  0.25699			 0.02920
	109.00			  9.52147			  0.20046			 0.21331
	109.25			  9.47616			  0.25461			 -0.12539
	109.50			  9.50601			  0.37503			 -0.03486
	109.75			  9.49610			  0.44191			 0.21606
	110.00			  9.58958			  0.22793			 0.09843
	110.25			  9.63798			  0.20763			 0.14650
	110.50			  9.67529			  0.41385			 0.30090
	110.75			  9.64885			  0.60235			 0.30678
	111.00			  9.78455			  0.28745			 0.01447
	111.25			  9.87601			  0.30218			 0.20919
	111.50			  9.83636			  0.20564			 -0.04891
	111.75			  10.01256			  0.27630			 0.12145
	112.00			  10.09219			  0.39454			 0.23824
	112.25			  10.00148			  0.25699			 0.30705
	112.50			  9.89040			  0.12462			 0.24649
	112.75			  9.84616			  0.21121			 0.01382
	113.00			  9.93634			  0.23052			 0.06070
	113.25			  9.98453			  0.28148			 0.08499
	113.50			  9.85384			  0.12263			 0.03409
	113.75			  9.81823			  0.07526			 0.01775
	114.00			  10.01533			  0.27391			 -0.10596
	114.25			  10.16766			  0.43992			 -0.20187
	114.50			  10.01768			  0.37662			 -0.16510
	114.75			  9.79990			  0.49645			 -0.16792
	115.00			  9.80821			  0.60533			 -0.09068
	115.25			  9.89456			  0.50402			 -0.06968
	115.50			  9.73093			  0.32129			 -0.07358
	115.75			  9.56411			  0.32208			 -0.04552
	116.00			  9.50931			  0.40190			 -0.06789
	116.25			  9.65088			  0.60593			 -0.24730
	116.50			  9.84350			  0.51158			 -0.13696
	116.75			  9.73637			  0.48391			 -0.06254
	117.00			  9.78306			  0.24366			 -0.07079
	117.25			  9.83135			  -0.07781			 -0.08835
	117.50			  9.75886			  -0.11503			 0.07323
	117.75			  9.66377			  -0.26174			 -0.11607
	118.00			  9.64928			  -0.38734			 -0.08282
	118.25			  9.72112			  -0.23725			 -0.04838
	118.50			  9.89349			  -0.05791			 -0.19629
	118.75			  9.72326			  0.07884			 -0.22298
	119.00			  9.81717			  -0.06010			 -0.17071
	119.25			  9.89509			  -0.00118			 -0.36364
	119.50			  9.77389			  0.17021			 -0.37658
	119.75			  9.77091			  -0.00755			 -0.24135
	120.00			  9.75214			  0.06949			 -0.20477
	120.25			  9.63936			  -0.02088			 -0.15639
	120.50			  9.52744			  -0.05333			 -0.24948
	120.75			  9.66793			  -0.06607			 -0.26143
	121.00			  9.56176			  0.08661			 -0.27514
	121.25			  9.63574			  -0.15186			 -0.35879
	121.50			  9.70812			  -0.46397			 -0.37628
	121.75			  9.71505			  -0.33558			 -0.34054
	122.00			  9.68893			  -0.15684			 -0.19885
	122.25			  9.64096			  -0.19286			 -0.02803
	122.50			  9.70268			  -0.29418			 -0.01948
	122.75			  9.90074			  -0.20580			 -0.16464
	123.00			  9.99039			  0.01793			 -0.21164
	123.25			  9.99082			  -0.09951			 -0.36517
	123.50			  9.95617			  -0.05034			 -0.40232
	123.75			  9.84179			  -0.10309			 -0.41442
	124.00			  10.00254			  -0.25119			 -0.31137
	124.25			  10.10264			  -0.27846			 -0.11558
	124.50			  10.31370			  -0.26034			 -0.29934
	124.75			  10.16489			  -0.46357			 -0.24047
	125.00			  10.22746			  -0.80475			 -0.09660
	125.25			  10.01448			  -0.77449			 -0.04723
	125.50			  9.89157			  -0.77290			 0.05879
	125.75			  9.94295			  -0.90268			 0.09045
	126.00			  10.15487			  -0.67556			 0.10495
	126.25			  10.06842			  -0.64790			 0.18032
	126.50			  10.17043			  -0.78883			 0.03566
	126.75			  10.16031			  -0.53026			 -0.06766
	127.00			  10.28279			  -0.48129			 -0.09397
	127.25			  10.39930			  -0.62162			 -0.12096
	127.50			  10.48980			  -0.49662			 0.07223
	127.75			  10.61505			  -0.60848			 0.31732
	128.00			  10.55354			  -0.81211			 0.19502
	128.25			  10.59757			  -0.64690			 0.16043
	128.50			  10.56335			  -0.57504			 0.01095
	128.75			  10.57934			  -0.52369			 0.07563
	129.00			  10.67379			  -0.59395			 -0.02219
	129.25			  10.46123			  -0.33777			 0.16349
	129.50			  10.66131			  -0.26154			 0.23866
	129.75			  10.61420			  -0.48965			 -0.12161
	130.00			  10.68338			  -0.51354			 -0.03872
	130.25			  10.77484			  -0.33638			 0.20888
	130.50			  10.68604			  -0.47850			 0.21488
	130.75			  10.70832			  -0.37221			 0.17941
	131.00			  10.97727			  -0.27627			 0.18914
	131.25			  10.89146			  -0.29139			 0.04742
	131.50			  10.77004			  -0.24422			 0.18426
	131.75			  10.89689			  -0.12698			 0.16326
	132.00			  10.87238			  -0.16241			 -0.14410
	132.25			  10.78220			  -0.12658			 -0.17590
	132.50			  10.86854			  0.03664			 -0.15139
	132.75			  10.97439			  0.07168			 -0.22668
	133.00			  10.71824			  0.27152			 0.16864
	133.25			  10.45366			  0.18852			 0.01905
	133.50			  10.66856			  0.02351			 -0.02646
	133.75			  10.82846			  -0.23407			 -0.02035
	134.00			  10.84189			  -0.20958			 -0.07186
	134.25			  10.66227			  -0.08279			 0.04669
	134.50			  10.74926			  -0.01909			 0.11160
	134.75			  10.74116			  -0.15962			 -0.09893
	135.00			  11.06585			  -0.21317			 -0.32740
	135.25			  11.03259			  -0.20083			 -0.35199
	135.50			  10.93154			  0.07625			 -0.37662
	135.75			  10.83699			  0.10253			 -0.30686
	136.00			  10.88144			  0.11706			 0.18338
	136.25			  10.98505			  0.17299			 0.07353
	136.50			  11.05775			  0.47297			 0.03810
	136.75			  10.96032			  0.35473			 0.03035
	137.00			  10.96128			  0.31114			 0.13874
	137.25			  10.92194			  0.23450			 0.05635
	137.50			  10.82611			  0.09039			 0.34328
	137.75			  10.72613			  -0.22770			 0.30334
	138.00			  10.60247			  -0.27408			 0.25516
	138.25			  10.68477			  -0.09612			 0.25405
	138.50			  10.79190			  -0.38933			 0.33102
	138.75			  10.82835			  -0.53404			 0.41758
	139.00			  10.73647			  -0.25656			 0.41178
	139.25			  10.78326			  -0.24541			 0.43258
	139.50			  10.72016			  -0.17176			 0.36668
	139.75			  10.72037			  -0.19227			 0.25203
	140.00			  10.80980			  -0.23048			 0.13546
	140.25			  10.94039			  -0.06866			 0.16433
	140.50			  10.72239			  -0.13096			 -0.02016
	140.75			  10.88048			  -0.14071			 0.10060
	141.00			  10.62848			  -0.16380			 0.05108
	141.25			  10.48521			  -0.15047			 0.17158
	141.50			  10.51496			  -0.25158			 -0.15296
	141.75			  10.44855			  -0.19903			 -0.13425
	142.00			  10.63541			  0.07625			 -0.10202
	142.25			  10.78347			  0.10790			 0.03138
	142.50			  10.82675			  0.16225			 -0.08179
	142.75			  10.84157			  0.13617			 0.01393
	143.00			  10.91757			  -0.08936			 0.02405
	143.25			  10.71024			  -0.26671			 -0.14318
	143.50			  10.62219			  -0.36962			 0.00786
	143.75			  10.60546			  -0.70502			 0.02245
	144.00			  10.53830			  -0.83122			 -0.17025
	144.25			  10.06160			  -0.48109			 0.00698
	144.50			  10.22448			  -0.18968			 -0.04319
	144.75			  10.31946			  -0.36783			 -0.25520
	145.00			  10.27906			  -0.16301			 -0.14104
	145.25			  10.57966			  -0.10966			 -0.09011
	145.50			  10.65588			  -0.02208			 -0.11069
	145.75			  10.72698			  -0.35648			 0.05818
	146.00			  10.77580			  -0.34952			 0.07410
	146.25			  10.73977			  -0.46357			 0.13974
	146.50			  10.86811			  -0.25656			 0.24496
	146.75			  10.84594			  -0.55136			 0.36856
	147.00			  10.96586			  -0.61426			 0.16559
	147.25			  10.97546			  -0.56370			 0.03806
	147.50			  10.87280			  -0.49781			 -0.12547
	147.75			  10.80906			  -0.49582			 -0.26555
	148.00			  10.88304			  -0.24581			 -0.09721
	148.25			  10.94486			  -0.35489			 0.13665
	148.50			  10.99006			  -0.23367			 -0.01829
	148.75			  11.02087			  -0.10269			 -0.05812
	149.00			  11.10273			  -0.07602			 -0.22680
	149.25			  11.08504			  -0.27965			 -0.34035
	149.50			  11.04208			  -0.40565			 -0.34963
	149.75			  10.79179			  -0.40008			 -0.40827
	150.00			  10.94678			  -0.53683			 -0.23176
	150.25			  10.92109			  -0.42536			 -0.22603
	150.50			  10.79968			  -0.25158			 -0.34791
	150.75			  10.87536			  -0.27826			 -0.40022
	151.00			  10.87845			  -0.45900			 -0.32737
	151.25			  10.93420			  -0.34235			 -0.17709
	151.50			  10.78315			  -0.15604			 -0.08641
	151.75			  10.72879			  -0.18829			 -0.07366
	152.00			  10.73188			  -0.13056			 -0.24012
	152.25			  10.72239			  -0.31548			 -0.26189
	152.50			  10.57177			  -0.44148			 -0.28380
	152.75			  10.56165			  -0.48925			 -0.32534
	153.00			  10.52263			  -0.40824			 -0.20820
	153.25			  10.88517			  -0.46059			 -0.20423
	153.50			  10.89956			  -0.36206			 -0.09317
	153.75			  10.74776			  -0.26213			 -0.16594
	154.00			  10.83102			  -0.17754			 -0.08179
	154.25			  10.92738			  -0.26074			 -0.01993
	154.50			  11.08674			  -0.25198			 0.14676
	154.75			  10.99464			  -0.42416			 -0.14685
	155.00			  10.93324			  -0.59973			 -0.31335
	155.25			  10.87781			  -0.47293			 -0.12340
	155.50			  11.06137			  -0.29438			 -0.14257
	155.75			  11.05572			  -0.11205			 0.02989
	156.00			  11.08472			  -0.41083			 0.21312
	156.25			  11.25282			  -0.62660			 0.08854
	156.50			  11.21136			  -0.65685			 0.01744
	156.75			  11.01031			  -0.78464			 -0.02860
	157.00			  10.97428			  -0.71139			 -0.04891
	157.25			  10.69073			  -0.80694			 0.06441
	157.50			  10.83230			  -0.64571			 0.02191
	157.75			  10.92930			  -0.37400			 -0.00791
	158.00			  10.98867			  -0.57504			 0.02134
	158.25			  11.11148			  -0.54956			 -0.04487
	158.50			  11.08525			  -0.47791			 0.11236
	158.75			  11.08227			  -0.46457			 0.07827
	159.00			  11.09922			  -0.42834			 -0.07377
	159.25			  11.09740			  -0.46019			 -0.00157
	159.50			  10.99838			  -0.46417			 -0.01314
	159.75			  10.73934			  -0.66681			 0.07376
	160.00			  10.93911			  -0.62899			 -0.14330
	160.25			  10.84029			  -0.47034			 -0.07961
	160.50			  10.61729			  -0.33081			 -0.08198
	160.75			  10.87483			  -0.59674			 -0.18961
	161.00			  10.92109			  -0.27089			 -0.10683
	161.25			  10.77719			  -0.43491			 -0.01394
	161.50			  10.82356			  -0.69308			 -0.05395
	161.75			  10.89988			  -0.72513			 0.33721
	162.00			  10.84381			  -0.89094			 0.31567
	162.25			  10.81492			  -1.13697			 0.22366
	162.50			  10.75533			  -1.32328			 0.03913
	162.75			  10.54598			  -1.24923			 -0.10470
	163.00			  10.65076			  -1.10054			 -0.04880
	163.25			  10.57209			  -1.34040			 0.03776
	163.50			  10.73412			  -1.39076			 -0.11523
	163.75			  10.92770			  -1.08720			 -0.30595
	164.00			  10.88474			  -1.19210			 -0.21580
	164.25			  10.89156			  -0.95364			 -0.14001
	164.50			  10.66867			  -0.99962			 -0.38025
	164.75			  10.84338			  -1.09556			 -0.16693
	165.00			  10.72613			  -1.04918			 -0.12562
	165.25			  10.77868			  -0.90567			 -0.24459
	165.50			  10.78209			  -0.85312			 -0.41396
	165.75			  10.53052			  -0.81629			 -0.17518
	166.00			  10.60610			  -0.74603			 0.04352
	166.25			  10.62987			  -0.72095			 -0.16449
	166.50			  10.76972			  -0.64571			 -0.11157
	166.75			  11.10369			  -0.54996			 -0.14841