--------------TurbSim v2.00.* User Time Series Input File-----------------------
     Time series input from low-res turbsim run
--------------------------------------------------------------------------------
          3 nComp - Number of velocity components in the file
          1 nPoints - Number of time series points contained in this file (-)
          1 RefPtID - Index of the reference point (1-nPoints)
     Pointyi Pointzi ! nPoints listed in order of increasing height
       (m)     (m)
       -2.06170   94.00000
--------Time Series-------------------------------------------------------------
Elapsed Time         Point01u             Point01v           Point01w
         (s)            (m/s)                (m/s)              (m/s)
	0.00			  10.28508			  -0.12135			 0.05230
	0.25			  10.28451			  -0.06855			 -0.10125
	0.50			  10.21704			  -0.19908			 -0.14377
	0.75			  10.26942			  -0.03316			 -0.09684
	1.00			  10.27816			  -0.08156			 -0.05617
	1.25			  10.39600			  0.06510			 0.18215
	1.50			  10.48711			  0.03228			 0.21458
	1.75			  10.46712			  0.26951			 0.12496
	2.00			  10.54007			  0.01395			 0.16659
	2.25			  10.48606			  -0.06433			 -0.04487
	2.50			  10.68021			  -0.15875			 -0.13240
	2.75			  10.82812			  -0.31256			 -0.06378
	3.00			  10.80775			  -0.36701			 -0.21289
	3.25			  10.88118			  -0.45977			 -0.08419
	3.50			  10.86061			  -0.48892			 0.09495
	3.75			  10.80035			  -0.39029			 0.14164
	4.00			  10.91703			  -0.17433			 0.17032
	4.25			  10.93010			  -0.07643			 0.07858
	4.50			  10.86071			  -0.15471			 -0.13855
	4.75			  10.66310			  -0.21851			 -0.12771
	5.00			  10.70750			  -0.12043			 -0.11286
	5.25			  10.64878			  0.02715			 -0.05819
	5.50			  10.45905			  -0.20348			 0.08088
	5.75			  10.52912			  -0.35876			 0.00260
	6.00			  10.58813			  -0.21686			 0.14733
	6.25			  10.52729			  -0.13858			 0.11353
	6.50			  10.46731			  -0.22621			 0.24220
	6.75			  10.30978			  -0.24216			 0.25739
	7.00			  10.32401			  -0.29973			 0.21452
	7.25			  10.40590			  -0.21924			 0.26224
	7.50			  10.38447			  -0.18038			 0.09983
	7.75			  10.38754			  0.04567			 0.11213
	8.00			  10.41541			  -0.00603			 0.25571
	8.25			  10.37553			  0.00534			 0.19470
	8.50			  10.48077			  -0.03591			 0.38118
	8.75			  10.51335			  0.00405			 0.43048
	9.00			  10.54670			  -0.03463			 0.48093
	9.25			  10.65166			  0.00974			 0.41852
	9.50			  10.64724			  0.02862			 0.31576
	9.75			  10.60562			  0.11222			 0.20256
	10.00			  10.53469			  0.04237			 0.12375
	10.25			  10.57967			  0.03797			 0.15218
	10.50			  10.58102			  0.03393			 0.19834
	10.75			  10.63090			  0.06767			 0.11055
	11.00			  10.61456			  0.08087			 0.19489
	11.25			  10.62609			  0.08673			 0.17473
	11.50			  10.77584			  0.20278			 0.29619
	11.75			  10.53604			  0.35953			 0.21812
	12.00			  10.44492			  0.03888			 0.23515
	12.25			  10.52710			  0.02165			 0.11884
	12.50			  10.44252			  0.03357			 0.27320
	12.75			  10.40042			  0.03375			 0.16277
	13.00			  10.27576			  0.26768			 0.12431
	13.25			  10.22597			  0.26695			 0.20160
	13.50			  10.15514			  0.14467			 0.33083
	13.75			  10.34842			  -0.01813			 0.17874
	14.00			  10.38985			  0.07280			 0.24720
	14.25			  10.44444			  0.10745			 0.21990
	14.50			  10.38312			  0.09700			 0.19921
	14.75			  10.54373			  -0.00695			 0.03960
	15.00			  10.51893			  -0.15801			 0.03025
	15.25			  10.51441			  -0.21136			 0.03429
	15.50			  10.56131			  -0.09348			 0.11950
	15.75			  10.60533			  0.01267			 0.07156
	16.00			  10.78228			  0.00094			 0.18594
	16.25			  10.86811			  0.07408			 0.14118
	16.50			  10.79208			  0.04053			 -0.05627
	16.75			  10.87695			  0.08068			 -0.06366
	17.00			  11.00488			  0.30435			 -0.12958
	17.25			  10.95134			  0.30288			 -0.05794
	17.50			  10.86993			  0.40518			 -0.01060
	17.75			  10.86215			  0.49281			 0.17299
	18.00			  10.88176			  0.11387			 0.13997
	18.25			  10.79670			  0.04182			 -0.08907
	18.50			  10.67444			  0.02092			 -0.11196
	18.75			  10.70510			  -0.13693			 -0.10131
	19.00			  10.76008			  -0.11566			 -0.15387
	19.25			  10.72874			  -0.16919			 -0.13026
	19.50			  10.67886			  -0.23244			 -0.24333
	19.75			  10.62533			  -0.13473			 -0.09516
	20.00			  10.63907			  -0.21466			 -0.28061
	20.25			  10.52815			  -0.26269			 -0.37197
	20.50			  10.54123			  -0.12960			 -0.31975
	20.75			  10.63369			  -0.18643			 -0.26191
	21.00			  10.67857			  -0.20164			 -0.19668
	21.25			  10.73422			  -0.06708			 -0.17462
	21.50			  10.83956			  -0.00401			 -0.02495
	21.75			  10.68559			  -0.01520			 0.08480
	22.00			  10.67281			  -0.16846			 0.10163
	22.25			  10.61898			  -0.26324			 0.08949
	22.50			  10.50941			  -0.27369			 0.08293
	22.75			  10.59351			  -0.37856			 -0.10184
	23.00			  10.45809			  -0.45134			 -0.03713
	23.25			  10.35928			  -0.32576			 -0.01023
	23.50			  10.24952			  -0.27058			 0.03488
	23.75			  10.14995			  -0.31751			 -0.01386
	24.00			  10.11756			  -0.14646			 0.08436
	24.25			  10.10718			  -0.17414			 -0.00920
	24.50			  10.31411			  -0.17268			 -0.03725
	24.75			  10.34785			  -0.01740			 -0.07208
	25.00			  10.24846			  0.13147			 -0.04704
	25.25			  10.13246			  0.00772			 -0.00647
	25.50			  10.36428			  0.04768			 -0.12411
	25.75			  10.43627			  0.15713			 0.03239
	26.00			  10.49740			  -0.13161			 0.09856
	26.25			  10.27317			  -0.20916			 -0.08814
	26.50			  10.33987			  -0.15416			 0.04920
	26.75			  10.48202			  -0.09971			 0.05224
	27.00			  10.43377			  -0.01391			 0.01543
	27.25			  10.47183			  -0.04563			 0.11822
	27.50			  10.30238			  -0.24326			 0.08244
	27.75			  10.32612			  -0.02601			 0.07063
	28.00			  10.38514			  0.04842			 0.13313
	28.25			  10.41128			  0.04163			 0.26752
	28.50			  10.44867			  0.04842			 0.35403
	28.75			  10.38917			  0.01798			 0.17597
	29.00			  10.26038			  -0.12245			 0.14494
	29.25			  10.30373			  -0.14463			 0.20958
	29.50			  10.35323			  -0.21319			 0.23335
	29.75			  10.43243			  -0.18313			 0.33893
	30.00			  10.53142			  -0.10833			 0.32958
	30.25			  10.52402			  -0.08083			 0.31977
	30.50			  10.52393			  -0.03096			 0.44151
	30.75			  10.49615			  0.04218			 0.59273
	31.00			  10.46434			  0.25393			 0.59891
	31.25			  10.33218			  0.29445			 0.44328
	31.50			  10.25625			  0.17858			 0.49239
	31.75			  10.24904			  0.17400			 0.31856
	32.00			  10.30863			  -0.00236			 0.14764
	32.25			  10.41618			  -0.00970			 0.07588
	32.50			  10.37533			  0.04603			 0.17681
	32.75			  10.46904			  0.19453			 0.29016
	33.00			  10.51191			  0.10525			 0.28454
	33.25			  10.59563			  0.07353			 0.25981
	33.50			  10.57746			  -0.08193			 0.28072
	33.75			  10.54997			  -0.07973			 0.26618
	34.00			  10.45030			  -0.23684			 0.22291
	34.25			  10.58717			  -0.15746			 0.27618
	34.50			  10.64022			  -0.04948			 0.35083
	34.75			  10.70395			  -0.15050			 0.34471
	35.00			  10.67290			  -0.09220			 0.26811
	35.25			  10.77853			  -0.20549			 0.28814
	35.50			  10.63993			  -0.17323			 0.17600
	35.75			  10.58582			  -0.08725			 0.33415
	36.00			  10.59130			  0.14797			 0.38149
	36.25			  10.53978			  -0.03518			 0.14671
	36.50			  10.44838			  -0.06176			 0.06482
	36.75			  10.31151			  -0.01318			 0.26202
	37.00			  10.35217			  -0.00878			 0.33763
	37.25			  10.34016			  -0.20714			 0.39401
	37.50			  10.37995			  -0.35601			 0.55669
	37.75			  10.50355			  -0.47132			 0.49581
	38.00			  10.38523			  -0.33254			 0.48807
	38.25			  10.36572			  -0.47316			 0.63765
	38.50			  10.41887			  -0.55547			 0.60037
	38.75			  10.42656			  -0.63320			 0.38966
	39.00			  10.48942			  -0.76923			 0.20231
	39.25			  10.14168			  -0.82332			 0.21440
	39.50			  10.30459			  -0.69187			 0.35021
	39.75			  10.30162			  -0.41357			 0.38910
	40.00			  10.42762			  -0.29679			 0.27146
	40.25			  10.59755			  -0.09678			 0.30666
	40.50			  10.56756			  -0.05718			 0.43747
	40.75			  10.44771			  -0.21668			 0.23707
	41.00			  10.57217			  -0.39597			 0.32259
	41.25			  10.44771			  -0.41284			 0.44272
	41.50			  10.42647			  -0.31861			 0.48180
	41.75			  10.58188			  -0.21063			 0.33225
	42.00			  10.60187			  -0.12758			 0.08483
	42.25			  10.58169			  -0.04068			 0.17755
	42.50			  10.50490			  -0.13656			 0.22869
	42.75			  10.43848			  -0.39102			 0.34617
	43.00			  10.33910			  -0.36957			 0.33555
	43.25			  10.40292			  -0.19688			 0.27503
	43.50			  10.38898			  -0.22969			 0.13922
	43.75			  10.35996			  -0.13528			 0.35388
	44.00			  10.20185			  -0.09073			 0.10862
	44.25			  10.17628			  -0.31293			 0.05842
	44.50			  10.24741			  -0.20219			 0.05094
	44.75			  10.24126			  -0.20329			 0.20045
	45.00			  10.05778			  -0.26471			 0.23825
	45.25			  9.97291			  -0.12666			 0.18672
	45.50			  9.98223			  -0.16223			 0.01661
	45.75			  9.95128			  -0.34666			 0.02230
	46.00			  9.97002			  -0.18148			 0.19793
	46.25			  9.93792			  -0.49479			 0.15174
	46.50			  9.91841			  -0.26563			 0.09610
	46.75			  9.83508			  -0.24986			 0.15674
	47.00			  9.89333			  -0.37984			 0.19629
	47.25			  9.83681			  -0.23941			 0.11934
	47.50			  9.67053			  -0.10430			 0.08943
	47.75			  9.64651			  0.08087			 0.09868
	48.00			  9.58173			  -0.27003			 0.26220
	48.25			  9.77290			  -0.38552			 0.18815
	48.50			  9.72061			  -0.35436			 0.04016
	48.75			  9.85632			  -0.23079			 0.03497
	49.00			  9.73243			  -0.28029			 0.00446
	49.25			  9.74108			  -0.43062			 0.02028
	49.50			  9.75156			  -0.32063			 -0.06608
	49.75			  9.59979			  -0.25756			 -0.10904
	50.00			  9.61921			  -0.18404			 -0.26527
	50.25			  9.79471			  -0.24143			 -0.29617
	50.50			  9.91303			  -0.14591			 -0.16021
	50.75			  9.97964			  -0.25151			 -0.21976
	51.00			  9.86449			  -0.31531			 -0.13890
	51.25			  9.75732			  -0.25756			 0.03773
	51.50			  9.78231			  -0.30798			 -0.04865
	51.75			  9.70715			  -0.18459			 0.05109
	52.00			  9.81653			  -0.09678			 -0.10193
	52.25			  9.88977			  -0.25224			 -0.25623
	52.50			  9.93715			  -0.27058			 -0.15648
	52.75			  10.15543			  -0.45702			 -0.15834
	53.00			  10.06931			  -0.65850			 -0.05971
	53.25			  9.93965			  -0.67390			 0.05202
	53.50			  9.91447			  -0.71534			 0.09089
	53.75			  9.78914			  -0.43264			 0.04292
	54.00			  9.69600			  -0.49369			 0.36723
	54.25			  9.71090			  -0.59324			 0.51538
	54.50			  9.84104			  -0.53677			 0.48835
	54.75			  9.89582			  -0.46087			 0.33524
	55.00			  9.79923			  -0.37929			 0.33614
	55.25			  9.82143			  -0.30339			 0.15531
	55.50			  9.86805			  -0.38882			 0.16991
	55.75			  9.64093			  -0.40001			 0.43971
	56.00			  9.60527			  -0.36646			 0.34925
	56.25			  9.79539			  -0.35307			 0.46819
	56.50			  9.79173			  -0.38956			 0.29992
	56.75			  9.70071			  -0.37141			 0.14217
	57.00			  9.68639			  -0.33401			 0.19563
	57.25			  9.60085			  -0.28799			 0.27382
	57.50			  9.52146			  -0.22163			 0.22455
	57.75			  9.60547			  -0.24344			 0.15631
	58.00			  9.70283			  -0.18771			 0.05836
	58.25			  9.60422			  -0.17818			 0.05557
	58.50			  9.61575			  -0.38974			 0.28687
	58.75			  9.83950			  -0.22859			 0.16389
	59.00			  9.83162			  -0.06708			 0.15646
	59.25			  9.85786			  -0.01245			 0.18986
	59.50			  9.68726			  -0.06066			 0.12658
	59.75			  9.55760			  -0.16663			 0.20225
	60.00			  9.60374			  -0.19083			 0.10577
	60.25			  9.69024			  -0.21283			 -0.02365
	60.50			  9.50234			  -0.31458			 0.13608
	60.75			  9.53694			  -0.14775			 -0.01302
	61.00			  9.60960			  -0.29789			 -0.08543
	61.25			  9.68889			  -0.37562			 -0.07922
	61.50			  9.81615			  -0.25976			 -0.30102
	61.75			  9.81845			  -0.23758			 -0.27723
	62.00			  9.83585			  -0.32796			 -0.14952
	62.25			  9.75636			  -0.48269			 -0.10550
	62.50			  9.67649			  -0.44859			 -0.18872
	62.75			  9.74954			  -0.33511			 -0.27092
	63.00			  9.62901			  -0.39102			 -0.30093
	63.25			  9.56885			  -0.36389			 -0.13790
	63.50			  9.67813			  -0.32613			 0.00474
	63.75			  9.59672			  -0.50102			 -0.04673
	64.00			  9.61498			  -0.43576			 0.05106
	64.25			  9.61959			  -0.48819			 0.29871
	64.50			  9.78549			  -0.55694			 0.31728
	64.75			  9.87583			  -0.57784			 0.41029
	65.00			  9.79615			  -0.54539			 0.48136
	65.25			  9.65794			  -0.60149			 0.31946
	65.50			  9.66083			  -0.64347			 0.38339
	65.75			  9.76915			  -0.54630			 0.20992
	66.00			  9.75425			  -0.67739			 0.17693
	66.25			  9.66534			  -0.74448			 0.18914
	66.50			  9.59355			  -0.69590			 0.24083
	66.75			  9.52569			  -0.80810			 0.25730
	67.00			  9.68313			  -0.55180			 0.33191
	67.25			  9.79846			  -0.63614			 0.50034
	67.50			  9.76040			  -0.64255			 0.34428
	67.75			  9.79289			  -0.82937			 0.10378
	68.00			  9.92129			  -0.72450			 -0.09991
	68.25			  9.88631			  -0.51807			 -0.06139
	68.50			  9.89236			  -0.42292			 -0.04881
	68.75			  10.03202			  -0.53292			 -0.06689
	69.00			  9.99002			  -0.56702			 -0.11196
	69.25			  9.85882			  -0.57160			 -0.12402
	69.50			  9.91380			  -0.38186			 -0.24072
	69.75			  9.86401			  -0.29826			 -0.04241
	70.00			  9.82557			  -0.34666			 0.07830
	70.25			  9.97925			  -0.31714			 0.19240
	70.50			  10.08940			  -0.42109			 0.09881
	70.75			  9.91620			  -0.38002			 -0.06232
	71.00			  9.69956			  -0.25279			 0.03432
	71.25			  9.75406			  -0.39707			 0.05951
	71.50			  9.54001			  -0.40752			 0.18939
	71.75			  9.71878			  -0.38662			 0.09576
	72.00			  9.80086			  -0.56005			 0.22288
	72.25			  9.71946			  -0.57582			 0.21244
	72.50			  9.61094			  -0.48837			 0.00891
	72.75			  9.75617			  -0.31879			 -0.03427
	73.00			  9.74733			  -0.33218			 -0.11765
	73.25			  9.67842			  -0.33309			 -0.05679
	73.50			  9.62748			  -0.28671			 -0.04024
	73.75			  9.55289			  -0.41339			 0.02798
	74.00			  9.57010			  -0.45207			 0.09772
	74.25			  9.57884			  -0.24656			 -0.00554
	74.50			  9.49868			  -0.13088			 -0.12336
	74.75			  9.74867			  0.01945			 -0.21858
	75.00			  9.87804			  -0.04490			 -0.07469
	75.25			  9.73868			  -0.32539			 -0.20258
	75.50			  9.72369			  -0.46344			 -0.19410
	75.75			  9.71417			  -0.33364			 -0.16275
	76.00			  9.60912			  -0.40606			 0.00866
	76.25			  9.54799			  -0.48764			 -0.13557
	76.50			  9.32280			  -0.33749			 -0.24461
	76.75			  9.53021			  -0.16223			 -0.22796
	77.00			  9.60672			  -0.14225			 -0.02470
	77.25			  9.51618			  -0.08138			 -0.14741
	77.50			  9.55799			  0.12267			 -0.13312
	77.75			  9.49667			  0.31076			 -0.06061
	78.00			  9.45389			  0.40426			 0.12521
	78.25			  9.43573			  0.21250			 0.19570
	78.50			  9.52665			  0.22936			 0.16578
	78.75			  9.60249			  0.04310			 0.03624
	79.00			  9.60969			  -0.10485			 -0.03433
	79.25			  9.53059			  0.11112			 0.06113
	79.50			  9.43313			  0.08178			 0.12005
	79.75			  9.38219			  -0.07441			 0.20834
	80.00			  9.52415			  -0.31201			 0.10872
	80.25			  9.50916			  -0.36352			 0.00077
	80.50			  9.62459			  -0.40276			 0.09977
	80.75			  9.68745			  -0.30248			 0.32427
	81.00			  9.74848			  -0.27003			 0.41075
	81.25			  9.76002			  0.01780			 0.33872
	81.50			  9.69081			  0.12817			 0.33841
	81.75			  9.55193			  0.21836			 0.31222
	82.00			  9.42487			  0.21690			 0.23328
	82.25			  9.56346			  0.15603			 0.19402
	82.50			  9.68389			  0.03265			 0.27242
	82.75			  9.78654			  0.11973			 0.05296
	83.00			  9.96512			  0.02165			 -0.04769
	83.25			  9.92466			  -0.01061			 -0.03374
	83.50			  9.93513			  -0.00841			 -0.07959
	83.75			  9.90207			  0.05593			 -0.20435
	84.00			  9.80548			  0.25466			 -0.12386
	84.25			  9.98434			  0.14980			 0.03028
	84.50			  9.86459			  0.16795			 0.21480
	84.75			  9.87506			  0.12010			 0.08529
	85.00			  9.91466			  0.09663			 0.16047
	85.25			  9.85623			  0.22441			 0.21847
	85.50			  9.90265			  0.35146			 0.24798
	85.75			  10.04317			  0.22661			 0.36605
	86.00			  10.12371			  0.07115			 0.22396
	86.25			  9.88025			  0.30160			 0.22825
	86.50			  10.01606			  0.19160			 0.19514
	86.75			  9.97291			  0.28546			 -0.03374
	87.00			  9.94330			  0.18060			 0.01792
	87.25			  9.97272			  0.28766			 0.01037
	87.50			  10.16744			  0.14412			 0.06181
	87.75			  9.98886			  0.08930			 0.13708
	88.00			  9.96628			  0.22258			 0.35984
	88.25			  9.82624			  0.31645			 0.30821
	88.50			  9.79375			  0.19050			 0.08281
	88.75			  9.65823			  -0.03078			 0.19989
	89.00			  9.68063			  -0.17176			 0.09349
	89.25			  9.71023			  -0.36517			 0.05557
	89.50			  9.85574			  -0.39982			 0.04768
	89.75			  9.85277			  -0.39304			 0.04184
	90.00			  9.96954			  -0.36884			 -0.04782
	90.25			  9.89496			  -0.50212			 -0.03679
	90.50			  9.88525			  -0.29074			 0.06215
	90.75			  9.94244			  -0.34831			 0.11558
	91.00			  9.96060			  -0.45134			 0.17495
	91.25			  10.07709			  -0.41357			 0.26680
	91.50			  10.23366			  -0.15215			 0.07113
	91.75			  10.25933			  -0.03720			 -0.00467
	92.00			  10.30681			  -0.13656			 -0.17459
	92.25			  10.24491			  0.07042			 -0.17807
	92.50			  10.45597			  -0.02363			 -0.32317
	92.75			  10.37216			  -0.16681			 -0.30344
	93.00			  10.31844			  -0.32961			 -0.04831
	93.25			  10.29325			  -0.29184			 0.18973
	93.50			  10.24635			  -0.35674			 0.09980
	93.75			  10.08209			  -0.44107			 0.09778
	94.00			  9.97839			  -0.42549			 -0.20245
	94.25			  9.97954			  -0.23923			 -0.17465
	94.50			  10.12448			  -0.24418			 -0.25775
	94.75			  10.31248			  -0.06103			 -0.30963
	95.00			  10.39292			  0.00130			 -0.27651
	95.25			  10.42099			  -0.08688			 -0.17049
	95.50			  10.34919			  -0.28928			 -0.05648
	95.75			  10.22482			  -0.39267			 -0.08382
	96.00			  10.34275			  -0.49314			 0.01391
	96.25			  10.33823			  -0.47737			 0.01158
	96.50			  10.55757			  -0.50432			 -0.15614
	96.75			  10.53296			  -0.69059			 -0.20339
	97.00			  10.53219			  -0.74760			 -0.15592
	97.25			  10.64128			  -0.84238			 -0.03188
	97.50			  10.66358			  -0.78628			 0.02425
	97.75			  10.45866			  -0.85393			 0.06616
	98.00			  10.40071			  -0.83908			 0.01360
	98.25			  10.31728			  -0.77290			 -0.04170
	98.50			  10.24539			  -0.65429			 -0.01299
	98.75			  10.31248			  -0.67372			 -0.19776
	99.00			  10.10968			  -0.72872			 0.11564
	99.25			  10.15177			  -0.78922			 0.15833
	99.50			  10.13236			  -0.81543			 0.15562
	99.75			  10.16581			  -0.65630			 0.11943
	100.00			  10.20752			  -0.64274			 0.18868
	100.25			  10.36207			  -0.67390			 0.33430
	100.50			  10.22943			  -0.62550			 0.14317
	100.75			  10.21886			  -0.37324			 0.11999
	101.00			  10.15725			  -0.44676			 -0.02971
	101.25			  10.30729			  -0.60570			 -0.08363
	101.50			  10.21511			  -0.48507			 0.04476
	101.75			  10.16533			  -0.45482			 -0.19783
	102.00			  10.12352			  -0.44401			 -0.26797
	102.25			  10.17465			  -0.52247			 -0.23448
	102.50			  10.25587			  -0.37471			 -0.35038
	102.75			  10.32757			  -0.36902			 -0.25946
	103.00			  10.29027			  -0.45171			 -0.15744
	103.25			  10.30373			  -0.33933			 -0.08118
	103.50			  10.12611			  -0.25041			 -0.13992
	103.75			  10.04634			  -0.38681			 -0.23094
	104.00			  9.94676			  -0.39964			 -0.21945
	104.25			  9.98406			  -0.38919			 -0.31472
	104.50			  10.11083			  -0.54465			 -0.28887
	104.75			  10.25125			  -0.49901			 -0.32171
	105.00			  10.22078			  -0.44071			 -0.12281
	105.25			  10.21473			  -0.15288			 -0.15927
	105.50			  10.09843			  -0.07350			 -0.19348
	105.75			  10.21819			  -0.09660			 -0.25219
	106.00			  10.41580			  -0.10411			 0.00369
	106.25			  10.41215			  -0.07790			 -0.09541
	106.50			  10.39590			  -0.05241			 0.04774
	106.75			  10.23683			  0.06272			 -0.08516
	107.00			  10.14341			  0.03338			 -0.12967
	107.25			  10.10804			  0.02477			 0.00114
	107.50			  10.22569			  -0.15050			 -0.07649
	107.75			  10.21012			  -0.24913			 -0.17453
	108.00			  10.25346			  -0.32613			 -0.24327
	108.25			  10.23905			  -0.14206			 -0.26042
	108.50			  10.11323			  -0.17084			 -0.16915
	108.75			  10.05287			  -0.16040			 -0.31873
	109.00			  10.29989			  -0.19596			 -0.26325
	109.25			  10.20387			  -0.33346			 -0.08789
	109.50			  10.25817			  -0.21393			 -0.21898
	109.75			  10.23395			  -0.28708			 0.01133
	110.00			  10.21973			  -0.39066			 -0.10563
	110.25			  10.30882			  -0.27809			 -0.14318
	110.50			  10.05172			  -0.20201			 -0.04148
	110.75			  10.05883			  -0.20971			 -0.04729
	111.00			  10.18465			  -0.35527			 -0.02545
	111.25			  10.04192			  -0.16626			 -0.03520
	111.50			  10.01770			  -0.21429			 -0.10597
	111.75			  10.01693			  -0.05956			 -0.12731
	112.00			  10.10074			  0.02605			 -0.04400
	112.25			  10.01847			  0.13293			 0.09787
	112.50			  9.98358			  0.20645			 -0.04390
	112.75			  10.14178			  0.19032			 0.06607
	113.00			  10.01279			  0.27006			 0.12708
	113.25			  10.06844			  -0.00108			 0.15777
	113.50			  9.91043			  -0.03005			 -0.03934
	113.75			  9.98146			  0.07720			 -0.06068
	114.00			  10.00020			  -0.00823			 -0.06645
	114.25			  10.15706			  0.00130			 -0.00327
	114.50			  10.23953			  -0.05113			 0.07486
	114.75			  10.12256			  0.08123			 -0.07525
	115.00			  10.17205			  -0.23391			 -0.16738
	115.25			  10.23616			  -0.20458			 -0.02203
	115.50			  10.31584			  -0.27204			 -0.12221
	115.75			  10.18647			  -0.35124			 -0.07525
	116.00			  10.36909			  -0.23776			 -0.06164
	116.25			  10.41243			  -0.23831			 0.06181
	116.50			  10.33304			  -0.03756			 0.11698
	116.75			  10.27307			  0.05300			 0.03447
	117.00			  10.27269			  0.00314			 -0.04943
	117.25			  10.38129			  -0.08871			 -0.22442
	117.50			  10.22665			  0.05025			 -0.04692
	117.75			  10.18397			  -0.24564			 -0.26837
	118.00			  10.21309			  -0.32814			 -0.33817
	118.25			  10.13034			  -0.18936			 -0.35470
	118.50			  10.11150			  0.10012			 -0.24352
	118.75			  10.06383			  0.08985			 -0.08500
	119.00			  10.03855			  0.04732			 -0.32050
	119.25			  10.15043			  0.27318			 -0.29018
	119.50			  10.04249			  0.33093			 -0.33044
	119.75			  10.09949			  0.36815			 -0.36644
	120.00			  10.09987			  0.33826			 -0.23575
	120.25			  10.11121			  0.21360			 -0.12181
	120.50			  10.15101			  0.07427			 -0.02200
	120.75			  10.16821			  0.14943			 -0.11383
	121.00			  10.25356			  0.27630			 -0.21460
	121.25			  10.06037			  0.17620			 0.05106
	121.50			  9.95695			  0.22753			 0.03686
	121.75			  9.90159			  0.25540			 -0.04387
	122.00			  9.87112			  0.16135			 -0.06527
	122.25			  9.92110			  0.21616			 -0.00411
	122.50			  10.13303			  0.16025			 -0.10488
	122.75			  10.22943			  0.18188			 -0.13669
	123.00			  10.26798			  0.27043			 0.02770
	123.25			  10.18993			  0.32378			 0.00030
	123.50			  9.95138			  0.28583			 0.03416
	123.75			  10.02692			  0.28895			 -0.00392
	124.00			  10.13322			  0.16135			 -0.09764
	124.25			  10.09363			  0.05630			 -0.06558
	124.50			  10.03346			  -0.15435			 -0.17366
	124.75			  10.02942			  0.13403			 -0.11976
	125.00			  10.11419			  0.15787			 -0.13082
	125.25			  10.13909			  0.12083			 -0.12467
	125.50			  10.16091			  0.29665			 -0.03135
	125.75			  10.24789			  0.29445			 0.01782
	126.00			  10.31747			  0.24586			 -0.05254
	126.25			  10.16773			  0.34853			 -0.05378
	126.50			  10.18522			  0.56779			 -0.13961
	126.75			  9.78183			  0.72674			 -0.03415
	127.00			  9.68053			  0.62462			 -0.03405
	127.25			  9.67082			  0.43433			 0.06103
	127.50			  9.59806			  0.35146			 -0.09771
	127.75			  9.89717			  0.37163			 -0.08745
	128.00			  9.84882			  0.30856			 0.03637
	128.25			  9.79981			  0.33753			 -0.08904
	128.50			  9.77338			  0.31571			 -0.05220
	128.75			  9.80682			  0.26786			 0.09676
	129.00			  9.86420			  0.36045			 0.07135
	129.25			  9.99348			  0.42278			 -0.01874
	129.50			  9.64055			  0.36943			 0.07874
	129.75			  9.66775			  0.41618			 0.02195
	130.00			  9.93379			  0.47943			 0.00900
	130.25			  9.83364			  0.40646			 0.06259
	130.50			  9.81096			  0.35550			 0.26888
	130.75			  9.95580			  0.22680			 0.28271
	131.00			  10.03999			  0.32341			 0.14888
	131.25			  9.87401			  0.22881			 0.07113
	131.50			  9.94446			  0.16667			 -0.03884
	131.75			  9.89188			  0.19912			 0.05967
	132.00			  9.88487			  0.19160			 0.34142
	132.25			  9.81124			  0.22386			 0.46307
	132.50			  9.69620			  0.23303			 0.37332
	132.75			  9.64708			  0.18812			 0.18420
	133.00			  9.67380			  0.24843			 0.26752
	133.25			  9.85373			  0.20553			 0.03329
	133.50			  9.91428			  0.32030			 0.19194
	133.75			  9.73166			  0.21378			 0.28730
	134.00			  9.80740			  0.12890			 0.03342
	134.25			  9.84412			  -0.00658			 0.10421
	134.50			  10.02817			  0.11167			 0.10020
	134.75			  9.94032			  0.18738			 0.14317
	135.00			  10.04259			  0.22808			 0.09545
	135.25			  10.10112			  0.21396			 -0.03788
	135.50			  9.99876			  0.04493			 -0.00231
	135.75			  10.12544			  -0.01006			 0.05047
	136.00			  10.20493			  0.05135			 0.20101
	136.25			  10.16763			  -0.05663			 0.13549
	136.50			  10.08844			  -0.05168			 0.06038
	136.75			  10.03125			  -0.00658			 0.09657
	137.00			  9.93879			  -0.09421			 -0.01945
	137.25			  9.92937			  0.05245			 0.11142
	137.50			  9.86305			  -0.02913			 0.01344
	137.75			  9.78674			  -0.03848			 0.06737
	138.00			  9.93494			  0.01395			 0.01596
	138.25			  9.98752			  -0.07991			 0.11111
	138.50			  10.00261			  0.00185			 0.02888
	138.75			  9.94734			  0.05007			 0.05718
	139.00			  9.97368			  -0.01886			 -0.09246
	139.25			  9.93196			  -0.16956			 0.02975
	139.50			  9.83643			  -0.40917			 -0.14744
	139.75			  9.68091			  -0.15655			 -0.15179
	140.00			  9.72618			  -0.09238			 0.03043
	140.25			  9.73551			  -0.19119			 0.02919
	140.50			  9.76828			  -0.21338			 0.19237
	140.75			  9.84056			  -0.22603			 0.13723
	141.00			  9.93312			  -0.13803			 0.04609
	141.25			  9.93802			  -0.17084			 -0.04931
	141.50			  10.11785			  -0.18514			 0.07855
	141.75			  9.98963			  -0.32778			 -0.02952
	142.00			  9.85728			  -0.23684			 -0.08301
	142.25			  9.77049			  -0.14316			 -0.16362
	142.50			  9.73426			  -0.18038			 -0.07624
	142.75			  9.85709			  -0.02235			 -0.11432
	143.00			  9.91005			  -0.10136			 -0.20758
	143.25			  9.92533			  0.00442			 -0.12684
	143.50			  9.85699			  0.02532			 -0.01616
	143.75			  9.87708			  0.15658			 -0.05841
	144.00			  9.88227			  -0.01025			 0.11648
	144.25			  10.05614			  0.12028			 0.22462
	144.50			  10.00530			  -0.11090			 0.18231
	144.75			  10.04345			  -0.21283			 0.18955
	145.00			  10.15206			  -0.24711			 0.22698
	145.25			  10.14505			  -0.13363			 0.17538
	145.50			  10.04749			  0.09553			 0.12145
	145.75			  10.09276			  0.18317			 -0.03483
	146.00			  10.11679			  0.04952			 -0.12830
	146.25			  10.24270			  0.02660			 -0.09143
	146.50			  10.18686			  0.01835			 -0.29484
	146.75			  10.00059			  0.07628			 -0.38210
	147.00			  10.12630			  0.27666			 -0.46016
	147.25			  10.13774			  0.22570			 -0.30192
	147.50			  10.16254			  0.19948			 -0.24657
	147.75			  10.28489			  0.12248			 -0.14843
	148.00			  10.22415			  0.13037			 0.01167
	148.25			  10.06691			  0.39528			 -0.19981
	148.50			  10.27576			  0.52563			 -0.18232
	148.75			  10.30113			  0.36778			 -0.16306
	149.00			  10.05681			  0.41563			 -0.12374
	149.25			  10.06460			  0.36870			 -0.11302
	149.50			  10.07642			  0.60977			 -0.12765
	149.75			  10.18272			  0.54194			 -0.13520
	150.00			  10.24587			  0.45211			 -0.16990
	150.25			  10.32065			  0.45193			 -0.31721
	150.50			  10.14764			  0.35898			 -0.27101
	150.75			  10.10372			  0.28950			 -0.04462
	151.00			  10.13438			  0.21341			 -0.11134
	151.25			  10.03375			  0.22881			 -0.35225
	151.50			  10.06604			  0.15438			 -0.41913
	151.75			  10.09516			  0.38593			 -0.41602
	152.00			  9.93744			  0.44533			 -0.43174
	152.25			  9.98675			  0.43763			 -0.37005
	152.50			  10.04403			  0.58502			 -0.47799
	152.75			  10.11794			  0.57806			 -0.34544
	153.00			  9.86776			  0.43304			 -0.24551
	153.25			  10.03971			  0.44698			 -0.23731
	153.50			  10.07584			  0.38098			 -0.20718
	153.75			  10.11852			  0.31516			 -0.05142
	154.00			  10.12217			  0.50344			 -0.02104
	154.25			  10.06172			  0.60152			 -0.07301
	154.50			  9.95859			  0.67834			 -0.05853
	154.75			  9.93023			  0.44423			 -0.12973
	155.00			  9.86997			  0.45743			 -0.05651
	155.25			  9.94984			  0.51921			 0.05479
	155.50			  10.19800			  0.45523			 0.17404
	155.75			  10.08757			  0.44844			 0.05314
	156.00			  9.96128			  0.25118			 -0.00159
	156.25			  9.85767			  0.21580			 -0.03132
	156.50			  9.86689			  0.25833			 -0.20099
	156.75			  9.77059			  0.28418			 -0.04294
	157.00			  9.81913			  0.25320			 -0.17993
	157.25			  9.70264			  0.17088			 -0.02707
	157.50			  9.91284			  0.01762			 -0.17993
	157.75			  10.15283			  0.10617			 -0.21879
	158.00			  10.11285			  0.25393			 -0.32739
	158.25			  9.89938			  0.16557			 -0.22075
	158.50			  9.91418			  0.10910			 -0.06975
	158.75			  9.99155			  0.15585			 -0.13076
	159.00			  9.78010			  0.14833			 -0.13958
	159.25			  9.61162			  0.21635			 -0.04049
	159.50			  9.64487			  0.35843			 -0.22407
	159.75			  9.52050			  0.38813			 -0.38424
	160.00			  9.57269			  0.40151			 -0.32360
	160.25			  9.59038			  0.47851			 -0.22401
	160.50			  9.41872			  0.62792			 -0.10612
	160.75			  9.37681			  0.44019			 -0.03955
	161.00			  9.24619			  0.36851			 0.25267
	161.25			  9.25436			  0.40389			 0.20259
	161.50			  9.40978			  0.51371			 0.20415
	161.75			  9.49542			  0.40298			 0.07032
	162.00			  9.68015			  0.44936			 0.02450
	162.25			  9.66582			  0.57659			 -0.14499
	162.50			  9.67053			  0.42479			 -0.04095
	162.75			  9.77443			  0.31956			 0.11698
	163.00			  9.82749			  0.44184			 0.12065
	163.25			  9.67976			  0.49409			 0.15134
	163.50			  9.74839			  0.41324			 -0.06009
	163.75			  9.49763			  0.39106			 -0.07164
	164.00			  9.53338			  0.38758			 0.01046
	164.25			  9.53703			  0.45083			 -0.05459
	164.50			  9.53203			  0.34156			 -0.22591
	164.75			  9.38460			  0.32268			 -0.25915
	165.00			  9.57317			  0.50894			 -0.25073
	165.25			  9.53059			  0.15127			 -0.36582
	165.50			  9.72378			  0.23743			 -0.27897
	165.75			  9.82912			  0.18518			 -0.22078
	166.00			  9.92668			  0.24696			 -0.27437