--------------TurbSim v2.00.* User Time Series Input File-----------------------
     Time series input from low-res turbsim run
--------------------------------------------------------------------------------
          3 nComp - Number of velocity components in the file
          1 nPoints - Number of time series points contained in this file (-)
          1 RefPtID - Index of the reference point (1-nPoints)
     Pointyi Pointzi ! nPoints listed in order of increasing height
       (m)     (m)
       -0.77312   94.00000
--------Time Series-------------------------------------------------------------
Elapsed Time         Point01u             Point01v           Point01w
         (s)            (m/s)                (m/s)              (m/s)
	0.00			  10.27284			  -0.63855			 -0.03832
	0.25			  10.29764			  -0.62795			 0.02498
	0.50			  10.31726			  -0.66813			 -0.00840
	0.75			  10.30109			  -0.48491			 0.08065
	1.00			  10.32380			  -0.63037			 0.00054
	1.25			  10.32807			  -0.64190			 -0.04404
	1.50			  10.34724			  -0.44622			 -0.20130
	1.75			  10.27920			  -0.42576			 -0.12310
	2.00			  10.25404			  -0.46203			 -0.00562
	2.25			  10.36014			  -0.36009			 -0.02773
	2.50			  10.46796			  -0.43394			 -0.10450
	2.75			  10.43371			  -0.25556			 0.13671
	3.00			  10.43708			  -0.29853			 0.24531
	3.25			  10.44389			  -0.18859			 0.24646
	3.50			  10.50366			  -0.21240			 0.15748
	3.75			  10.47559			  -0.18060			 0.13100
	4.00			  10.58387			  -0.38576			 0.04705
	4.25			  10.43099			  -0.43971			 -0.08925
	4.50			  10.42599			  -0.29313			 -0.01510
	4.75			  10.26930			  -0.34670			 -0.03127
	5.00			  10.25686			  -0.23361			 0.08710
	5.25			  10.42518			  -0.04630			 0.18080
	5.50			  10.43026			  -0.03551			 0.08754
	5.75			  10.29574			  0.13432			 -0.08427
	6.00			  10.30582			  0.21077			 0.04897
	6.25			  10.39711			  0.29540			 0.23246
	6.50			  10.29592			  0.27866			 0.22824
	6.75			  10.29228			  0.23997			 0.17892
	7.00			  10.54308			  0.10344			 0.23884
	7.25			  10.42781			  -0.03923			 0.24732
	7.50			  10.33825			  -0.02863			 0.03838
	7.75			  10.36168			  -0.07792			 -0.02282
	8.00			  10.50729			  -0.16348			 -0.19523
	8.25			  10.54808			  -0.12981			 -0.30173
	8.50			  10.40955			  -0.08071			 -0.14632
	8.75			  10.33252			  -0.09708			 0.01180
	9.00			  10.13296			  0.06884			 0.08339
	9.25			  10.12533			  0.07238			 0.00484
	9.50			  10.10216			  0.03146			 0.10088
	9.75			  10.14468			  -0.03811			 -0.02923
	10.00			  10.24541			  -0.02639			 -0.08743
	10.25			  10.19500			  -0.11865			 -0.11544
	10.50			  10.13032			  -0.16032			 0.02105
	10.75			  10.20127			  0.01155			 -0.14211
	11.00			  10.03876			  0.05787			 -0.20353
	11.25			  9.88398			  0.00300			 -0.08628
	11.50			  9.98099			  -0.07531			 -0.15625
	11.75			  9.99171			  -0.10005			 -0.03296
	12.00			  9.96609			  -0.17669			 -0.09910
	12.25			  9.95020			  -0.16162			 -0.07186
	12.50			  9.93121			  -0.06955			 0.02730
	12.75			  9.97236			  -0.01151			 0.22461
	13.00			  10.01342			  -0.00184			 0.12787
	13.25			  9.88416			  0.03239			 0.16743
	13.50			  9.83465			  0.01062			 0.19458
	13.75			  9.84147			  -0.02230			 0.22263
	14.00			  9.92113			  0.08800			 0.14580
	14.25			  9.80931			  -0.11456			 0.05245
	14.50			  9.66334			  -0.09503			 -0.09145
	14.75			  9.80686			  -0.00463			 -0.07805
	15.00			  9.85128			  0.01974			 0.05072
	15.25			  9.90750			  0.22695			 0.05615
	15.50			  9.84110			  0.30917			 0.04249
	15.75			  9.92658			  0.14529			 0.10391
	16.00			  9.91114			  0.09879			 0.07191
	16.25			  9.93394			  -0.04816			 0.14660
	16.50			  9.84573			  -0.13447			 0.08646
	16.75			  9.95238			  -0.08610			 0.07861
	17.00			  9.97172			  -0.06992			 -0.11857
	17.25			  9.74236			  -0.00854			 -0.22545
	17.50			  9.76262			  -0.18320			 -0.18397
	17.75			  9.79977			  -0.32550			 -0.05775
	18.00			  9.78615			  -0.29015			 0.10525
	18.25			  9.70848			  -0.15586			 0.04058
	18.50			  9.72756			  -0.19083			 -0.03682
	18.75			  9.76226			  -0.01170			 0.10496
	19.00			  9.67805			  -0.07029			 0.30083
	19.25			  9.64226			  -0.08220			 0.14673
	19.50			  9.63191			  -0.10582			 0.14210
	19.75			  9.68668			  -0.12888			 -0.04187
	20.00			  9.79305			  -0.20794			 -0.13305
	20.25			  9.75699			  -0.24142			 -0.04097
	20.50			  9.70131			  -0.15902			 -0.08867
	20.75			  9.71411			  -0.05839			 0.08764
	21.00			  9.54425			  -0.02267			 0.00117
	21.25			  9.61701			  -0.19027			 -0.07262
	21.50			  9.52845			  -0.05430			 0.05704
	21.75			  9.58476			  -0.19994			 -0.12262
	22.00			  9.68813			  -0.28123			 -0.32413
	22.25			  9.67142			  -0.29183			 -0.26763
	22.50			  9.54471			  -0.19715			 -0.07853
	22.75			  9.51646			  -0.13037			 -0.00805
	23.00			  9.40373			  -0.16776			 -0.08334
	23.25			  9.39428			  -0.17241			 -0.30521
	23.50			  9.39183			  -0.36977			 -0.22427
	23.75			  9.42362			  -0.40139			 -0.18413
	24.00			  9.40091			  -0.35861			 -0.04534
	24.25			  9.39810			  -0.36828			 -0.18193
	24.50			  9.49120			  -0.41348			 -0.08446
	24.75			  9.55297			  -0.59056			 -0.04308
	25.00			  9.50819			  -0.57493			 -0.17360
	25.25			  9.53817			  -0.61846			 -0.21049
	25.50			  9.56133			  -0.39265			 -0.16215
	25.75			  9.74536			  -0.50016			 -0.23834
	26.00			  9.74763			  -0.48398			 -0.32040
	26.25			  9.72465			  -0.73267			 -0.53831
	26.50			  9.83057			  -0.63762			 -0.59947
	26.75			  9.88707			  -0.45421			 -0.43740
	27.00			  9.77734			  -0.52639			 -0.22695
	27.25			  9.76335			  -0.68542			 -0.08554
	27.50			  9.85046			  -0.61214			 -0.13618
	27.75			  9.81976			  -0.59670			 -0.13800
	28.00			  9.98008			  -0.46110			 -0.03290
	28.25			  10.03540			  -0.47802			 -0.18027
	28.50			  10.18092			  -0.54536			 -0.20854
	28.75			  10.18546			  -0.62460			 -0.16904
	29.00			  9.88925			  -0.41050			 -0.29121
	29.25			  9.83865			  -0.47040			 -0.38137
	29.50			  9.99025			  -0.37479			 -0.25129
	29.75			  10.07110			  -0.46240			 -0.34053
	30.00			  9.97172			  -0.41720			 -0.29219
	30.25			  9.92549			  -0.35749			 -0.31306
	30.50			  10.00533			  -0.30931			 -0.37697
	30.75			  10.05938			  -0.18413			 -0.44397
	31.00			  10.19082			  -0.32289			 -0.44620
	31.25			  10.08136			  -0.48993			 -0.24029
	31.50			  10.04085			  -0.39376			 -0.33760
	31.75			  9.99098			  -0.55038			 -0.43283
	32.00			  10.06111			  -0.39209			 -0.32372
	32.25			  10.16993			  -0.05262			 -0.23518
	32.50			  10.24750			  -0.18208			 -0.05345
	32.75			  10.18646			  -0.18599			 -0.06149
	33.00			  10.18700			  -0.28625			 0.04099
	33.25			  9.93112			  -0.29704			 0.14028
	33.50			  10.08609			  -0.06843			 0.03869
	33.75			  10.01705			  0.06531			 -0.00342
	34.00			  9.89996			  0.03741			 0.02424
	34.25			  9.84737			  0.19496			 -0.00368
	34.50			  9.84646			  0.02085			 0.04517
	34.75			  9.74082			  -0.15604			 0.02737
	35.00			  9.78151			  -0.29629			 0.18434
	35.25			  9.85155			  -0.20366			 0.08368
	35.50			  9.89170			  -0.08666			 0.10640
	35.75			  9.90351			  -0.30671			 0.11217
	36.00			  9.97327			  -0.13000			 0.08812
	36.25			  10.06220			  0.03071			 0.07050
	36.50			  10.02214			  -0.04165			 0.14858
	36.75			  9.97127			  -0.10582			 -0.04266
	37.00			  9.93948			  -0.14507			 -0.08688
	37.25			  10.10280			  -0.10043			 0.07395
	37.50			  10.12705			  -0.18357			 0.20530
	37.75			  10.19064			  0.01974			 0.23880
	38.00			  10.32962			  0.01155			 0.17691
	38.25			  10.26912			  0.02606			 0.13843
	38.50			  10.36114			  0.06177			 0.12251
	38.75			  10.36859			  -0.08275			 0.23705
	39.00			  10.38276			  0.04429			 0.21800
	39.25			  10.35623			  0.10251			 0.28510
	39.50			  10.36931			  0.09172			 0.30463
	39.75			  10.34351			  0.25969			 0.21711
	40.00			  10.39711			  0.42579			 0.03439
	40.25			  10.31145			  0.46225			 0.10531
	40.50			  10.09172			  0.50094			 0.17180
	40.75			  10.06683			  0.37576			 0.16603
	41.00			  10.12460			  0.20761			 0.10094
	41.25			  10.29065			  0.15850			 0.03180
	41.50			  10.28175			  0.40329			 0.04836
	41.75			  10.19246			  0.44514			 0.06460
	42.00			  10.31336			  0.24909			 0.07717
	42.25			  10.45470			  0.25485			 -0.00438
	42.50			  10.40001			  0.26731			 0.00223
	42.75			  10.41900			  0.11404			 0.08062
	43.00			  10.31063			  0.11907			 0.13298
	43.25			  10.34188			  -0.06229			 0.07762
	43.50			  10.34778			  -0.08982			 0.05564
	43.75			  10.20027			  -0.29834			 -0.12772
	44.00			  10.42272			  -0.33889			 -0.02933
	44.25			  10.40210			  -0.41162			 -0.07348
	44.50			  10.35096			  -0.45924			 -0.08108
	44.75			  10.28138			  -0.35321			 -0.08124
	45.00			  10.25304			  -0.25221			 -0.13535
	45.25			  10.31481			  -0.24737			 -0.04522
	45.50			  10.24786			  -0.29034			 0.04364
	45.75			  10.27339			  -0.33070			 0.01142
	46.00			  10.49630			  -0.21780			 0.06262
	46.25			  10.49930			  -0.22598			 0.00998
	46.50			  10.59540			  -0.09838			 -0.03332
	46.75			  10.58668			  -0.09261			 -0.14923
	47.00			  10.30464			  0.06717			 -0.10370
	47.25			  10.18828			  -0.09410			 0.00347
	47.50			  10.27593			  -0.22152			 0.01135
	47.75			  10.26830			  -0.24049			 -0.11480
	48.00			  10.26630			  -0.28699			 -0.24150
	48.25			  10.07092			  -0.41552			 -0.25503
	48.50			  10.00515			  -0.71928			 -0.26488
	48.75			  10.00352			  -0.86883			 -0.31714
	49.00			  9.99570			  -0.67296			 -0.32027
	49.25			  9.93630			  -0.67650			 -0.31494
	49.50			  10.13232			  -0.47375			 -0.40495
	49.75			  9.99125			  -0.50221			 -0.33916
	50.00			  10.02368			  -0.73230			 -0.18582
	50.25			  10.02386			  -0.60488			 -0.03325
	50.50			  9.93312			  -0.49235			 -0.15188
	50.75			  9.90251			  -0.47579			 -0.19903
	51.00			  10.05938			  -0.56508			 -0.21636
	51.25			  9.98617			  -0.53401			 -0.20219
	51.50			  9.89224			  -0.82140			 -0.08363
	51.75			  9.96600			  -0.78159			 -0.13292
	52.00			  9.88343			  -0.69528			 -0.11368
	52.25			  10.09553			  -0.65157			 -0.05830
	52.50			  10.10089			  -0.52936			 -0.08293
	52.75			  10.13623			  -0.46445			 -0.08315
	53.00			  10.11597			  -0.51746			 0.05513
	53.25			  10.10643			  -0.59856			 0.04753
	53.50			  9.98462			  -0.50686			 0.13227
	53.75			  10.02014			  -0.59837			 0.16648
	54.00			  10.03740			  -0.42892			 0.15716
	54.25			  9.98589			  -0.12684			 0.04964
	54.50			  10.07337			  -0.40567			 0.04964
	54.75			  10.13223			  -0.34838			 -0.03950
	55.00			  9.93866			  -0.24644			 0.01537
	55.25			  10.03158			  -0.06564			 0.01378
	55.50			  9.99634			  0.14306			 -0.04065
	55.75			  9.81776			  -0.09019			 -0.08813
	56.00			  9.73728			  -0.11196			 0.08764
	56.25			  9.64917			  -0.03272			 -0.07112
	56.50			  9.59675			  0.02569			 -0.06391
	56.75			  9.53235			  0.28592			 0.02233
	57.00			  9.35849			  0.11814			 0.02916
	57.25			  9.33188			  -0.13763			 0.14580
	57.50			  9.57468			  -0.09392			 0.11332
	57.75			  9.53053			  -0.14656			 0.12656
	58.00			  9.59839			  -0.15734			 0.07823
	58.25			  9.61756			  -0.08071			 0.05835
	58.50			  9.64453			  -0.23603			 -0.07291
	58.75			  9.75435			  -0.13763			 -0.00227
	59.00			  9.69740			  -0.14693			 -0.00380
	59.25			  9.84810			  -0.09894			 -0.08108
	59.50			  9.75944			  -0.16627			 0.05040
	59.75			  9.68714			  0.04634			 -0.06895
	60.00			  9.88852			  -0.02119			 -0.04646
	60.25			  9.90460			  -0.06155			 -0.19603
	60.50			  9.86218			  -0.03421			 -0.15341
	60.75			  9.74354			  0.06419			 0.00899
	61.00			  9.84873			  0.01434			 -0.00773
	61.25			  9.92167			  -0.10787			 0.01225
	61.50			  9.70058			  -0.22263			 -0.03367
	61.75			  9.72392			  -0.02509			 -0.00750
	62.00			  9.68895			  -0.14507			 -0.01940
	62.25			  9.64208			  -0.29071			 -0.00131
	62.50			  9.57041			  -0.39730			 0.04622
	62.75			  9.64690			  -0.43747			 -0.05262
	63.00			  9.59030			  -0.44975			 -0.12479
	63.25			  9.42989			  -0.28383			 -0.18675
	63.50			  9.41081			  -0.20831			 -0.07017
	63.75			  9.41890			  -0.16218			 -0.12517
	64.00			  9.51073			  0.00486			 -0.36216
	64.25			  9.58767			  -0.20385			 -0.20401
	64.50			  9.47830			  -0.32754			 -0.21428
	64.75			  9.44206			  -0.36344			 -0.28709
	65.00			  9.46059			  -0.37535			 -0.22085
	65.25			  9.61174			  -0.38576			 -0.10510
	65.50			  9.52917			  -0.40939			 -0.03274
	65.75			  9.43570			  -0.33610			 0.00111
	66.00			  9.55006			  -0.29425			 0.17525
	66.25			  9.73137			  -0.29499			 0.25900
	66.50			  9.64390			  -0.19734			 0.15333
	66.75			  9.56805			  -0.23007			 0.05426
	67.00			  9.56569			  -0.21668			 0.00746
	67.25			  9.53044			  -0.18580			 -0.03644
	67.50			  9.50946			  -0.37274			 0.03515
	67.75			  9.47022			  -0.25667			 -0.12916
	68.00			  9.48094			  -0.16069			 -0.00052
	68.25			  9.59139			  -0.10433			 0.17289
	68.50			  9.65180			  -0.08443			 -0.00508
	68.75			  9.81185			  -0.12516			 -0.23020
	69.00			  9.70875			  -0.19380			 -0.03890
	69.25			  9.68659			  -0.36456			 0.04760
	69.50			  9.67406			  -0.40585			 0.18973
	69.75			  9.68550			  -0.42408			 0.15308
	70.00			  9.62037			  -0.46017			 0.28086
	70.25			  9.69250			  -0.49662			 0.23061
	70.50			  9.79105			  -0.72467			 0.12790
	70.75			  9.89933			  -0.41645			 0.30928
	71.00			  9.75999			  -0.46333			 0.26063
	71.25			  9.77288			  -0.52843			 0.22486
	71.50			  9.85128			  -0.45477			 0.14513
	71.75			  9.79696			  -0.38483			 0.19934
	72.00			  9.90505			  -0.19269			 0.18319
	72.25			  10.03958			  -0.17762			 -0.01318
	72.50			  9.84374			  -0.35675			 0.29279
	72.75			  9.78551			  -0.31024			 0.36872
	73.00			  9.85854			  -0.18655			 0.29895
	73.25			  9.71448			  -0.26560			 0.26880
	73.50			  9.75990			  -0.13335			 0.28762
	73.75			  9.76934			  -0.09317			 0.37542
	74.00			  9.69522			  -0.17483			 0.30153
	74.25			  9.70385			  -0.05802			 0.22190
	74.50			  9.59094			  -0.12740			 0.25508
	74.75			  9.55452			  -0.29555			 0.25035
	75.00			  9.45441			  -0.35898			 0.23102
	75.25			  9.33942			  -0.22821			 0.40813
	75.50			  9.43670			  -0.32103			 0.30526
	75.75			  9.52154			  -0.19231			 0.19391
	76.00			  9.48730			  -0.49625			 0.08540
	76.25			  9.57168			  -0.56470			 0.04587
	76.50			  9.55488			  -0.44212			 0.37555
	76.75			  9.55506			  -0.39525			 0.50604
	77.00			  9.58086			  -0.18878			 0.37022
	77.25			  9.73737			  -0.24737			 0.40143
	77.50			  9.69386			  -0.37349			 0.33675
	77.75			  9.70385			  -0.14953			 0.38879
	78.00			  9.72974			  -0.16088			 0.42685
	78.25			  9.68668			  -0.16237			 0.24921
	78.50			  9.63164			  -0.12870			 0.32396
	78.75			  9.74436			  -0.04648			 0.34014
	79.00			  9.95001			  -0.08833			 0.00813
	79.25			  9.99543			  -0.05950			 -0.04621
	79.50			  10.06856			  0.08112			 0.02118
	79.75			  10.19436			  0.13934			 -0.01057
	80.00			  10.06310			  0.18994			 -0.05472
	80.25			  10.02722			  0.08819			 -0.00352
	80.50			  9.95946			  0.10177			 -0.12297
	80.75			  10.01024			  0.11460			 -0.05689
	81.00			  10.01578			  0.15385			 -0.12533
	81.25			  10.14004			  0.00988			 -0.24424
	81.50			  10.03077			  -0.18506			 -0.24963
	81.75			  10.09581			  -0.07234			 -0.02668
	82.00			  10.15158			  0.03685			 -0.07591
	82.25			  10.11733			  -0.20050			 -0.01363
	82.50			  10.01360			  -0.18934			 0.14523
	82.75			  10.02141			  -0.02918			 0.10231
	83.00			  9.93167			  0.09451			 0.19235
	83.25			  10.06183			  0.16817			 0.12286
	83.50			  10.07046			  0.09172			 -0.01066
	83.75			  10.02595			  0.09656			 0.10062
	84.00			  10.00733			  0.05545			 0.12206
	84.25			  10.04312			  0.03964			 0.16612
	84.50			  10.13514			  -0.06955			 0.27084
	84.75			  10.25831			  -0.01468			 0.11367
	85.00			  10.24423			  -0.18301			 -0.11601
	85.25			  10.32962			  -0.18376			 0.01209
	85.50			  10.28384			  -0.28197			 -0.21814
	85.75			  10.25622			  -0.41813			 -0.32822
	86.00			  10.11461			  -0.29760			 -0.17533
	86.25			  10.03885			  -0.17036			 -0.09706
	86.50			  10.14676			  -0.11121			 0.03480
	86.75			  9.99035			  0.00913			 0.15757
	87.00			  9.99634			  -0.17836			 -0.02952
	87.25			  10.02704			  -0.24272			 0.09408
	87.50			  10.13296			  -0.27137			 0.14411
	87.75			  10.12088			  -0.22803			 0.22036
	88.00			  10.32934			  -0.36288			 0.27751
	88.25			  10.06928			  -0.45403			 0.15671
	88.50			  10.17710			  -0.17985			 0.30402
	88.75			  10.20417			  -0.28253			 0.02153
	89.00			  10.12251			  -0.34038			 -0.05405
	89.25			  10.19100			  -0.39953			 0.20872
	89.50			  10.16775			  -0.38353			 0.07794
	89.75			  10.25613			  -0.50239			 0.01247
	90.00			  10.12251			  -0.68542			 -0.07371
	90.25			  10.19809			  -0.54424			 -0.03561
	90.50			  10.08581			  -0.50593			 -0.06516
	90.75			  10.25368			  -0.49067			 0.06333
	91.00			  10.23597			  -0.37702			 0.16833
	91.25			  10.09054			  -0.50872			 0.15346
	91.50			  10.17029			  -0.57400			 0.18587
	91.75			  10.07700			  -0.45124			 0.11645
	92.00			  9.96882			  -0.38502			 0.13511
	92.25			  10.21934			  -0.33945			 0.08295
	92.50			  10.23406			  -0.32940			 0.03024
	92.75			  10.09008			  -0.34224			 0.06744
	93.00			  10.08581			  -0.33089			 0.17755
	93.25			  10.07591			  -0.34707			 0.22298
	93.50			  9.97772			  -0.47337			 0.00318
	93.75			  9.97000			  -0.44268			 0.00947
	94.00			  9.91877			  -0.36716			 0.08435
	94.25			  10.04757			  -0.42538			 0.08840
	94.50			  9.91341			  -0.47319			 0.11833
	94.75			  9.91886			  -0.47040			 0.13029
	95.00			  9.97163			  -0.77992			 0.16759
	95.25			  10.08927			  -0.84967			 0.02242
	95.50			  10.04358			  -0.59670			 -0.06959
	95.75			  10.03158			  -0.39785			 0.00736
	96.00			  10.06692			  -0.51002			 0.18488
	96.25			  9.90650			  -0.38409			 0.17302
	96.50			  10.02350			  -0.35786			 0.13090
	96.75			  10.01269			  -0.37851			 0.11737
	97.00			  10.05629			  -0.70644			 0.22620
	97.25			  10.23233			  -0.57921			 0.08371
	97.50			  10.23914			  -0.50686			 0.20250
	97.75			  10.09617			  -0.44826			 0.14615
	98.00			  10.20908			  -0.21984			 0.16121
	98.25			  10.12914			  -0.27695			 0.17142
	98.50			  10.09226			  -0.35228			 0.12911
	98.75			  10.02968			  -0.39097			 -0.10654
	99.00			  10.14458			  -0.08908			 -0.11384
	99.25			  10.12269			  -0.14507			 -0.09237
	99.50			  10.19336			  -0.23658			 0.09421
	99.75			  10.17638			  -0.22468			 0.13617
	100.00			  9.99743			  -0.25537			 -0.08471
	100.25			  10.03113			  -0.36363			 0.10037
	100.50			  10.09735			  -0.29387			 -0.05549
	100.75			  9.94593			  -0.24142			 -0.08730
	101.00			  10.01069			  -0.27825			 -0.14246
	101.25			  10.09290			  -0.29480			 -0.02167
	101.50			  10.14104			  -0.25332			 0.00976
	101.75			  10.06556			  -0.16590			 -0.14010
	102.00			  10.02950			  -0.13242			 -0.23767
	102.25			  9.99362			  -0.19510			 -0.00530
	102.50			  10.25622			  -0.32736			 -0.00387
	102.75			  10.28175			  -0.19008			 -0.09432
	103.00			  10.49457			  -0.34001			 -0.07336
	103.25			  10.32980			  -0.37479			 -0.16757
	103.50			  10.29910			  -0.39134			 -0.15481
	103.75			  10.22497			  -0.34466			 0.02198
	104.00			  10.33761			  -0.27490			 0.05277
	104.25			  10.37567			  -0.29722			 0.13307
	104.50			  10.23751			  -0.17762			 0.08556
	104.75			  10.19318			  -0.31545			 0.15381
	105.00			  10.32062			  -0.28309			 0.23517
	105.25			  10.38966			  -0.40455			 0.13760
	105.50			  10.35469			  -0.46686			 0.10397
	105.75			  10.11988			  -0.47244			 0.00050
	106.00			  10.06946			  -0.32550			 -0.00361
	106.25			  10.24977			  -0.40976			 0.10235
	106.50			  10.25613			  -0.36977			 0.26241
	106.75			  10.20227			  -0.39637			 0.30236
	107.00			  10.19282			  -0.56675			 0.33883
	107.25			  10.27611			  -0.50500			 0.36821
	107.50			  10.25486			  -0.58740			 0.27562
	107.75			  10.41128			  -0.66961			 0.04297
	108.00			  10.47305			  -0.49681			 0.07433
	108.25			  10.40546			  -0.57661			 0.13004
	108.50			  10.61094			  -0.47951			 0.09855
	108.75			  10.64791			  -0.37014			 0.18163
	109.00			  10.32081			  -0.27546			 -0.05284
	109.25			  10.18782			  -0.36512			 -0.16244
	109.50			  10.27221			  -0.34949			 -0.23365
	109.75			  10.38757			  -0.55150			 -0.14865
	110.00			  10.35814			  -0.52918			 -0.13551
	110.25			  10.21862			  -0.50425			 -0.10893
	110.50			  10.19155			  -0.69454			 -0.13126
	110.75			  10.27194			  -0.79071			 -0.14766
	111.00			  10.43462			  -0.75983			 -0.36947
	111.25			  10.50902			  -0.51950			 -0.41002
	111.50			  10.44670			  -0.71184			 -0.55522
	111.75			  10.50947			  -0.62088			 -0.36695
	112.00			  10.44098			  -0.62274			 -0.29293
	112.25			  10.53236			  -0.32643			 -0.27838
	112.50			  10.52237			  -0.35321			 -0.23323
	112.75			  10.60131			  -0.36065			 -0.27742
	113.00			  10.63564			  -0.33312			 -0.27040
	113.25			  10.58741			  -0.61195			 -0.31622
	113.50			  10.56497			  -0.72225			 -0.25372
	113.75			  10.47777			  -0.74978			 -0.13481
	114.00			  10.44770			  -0.61734			 -0.06146
	114.25			  10.46651			  -0.28439			 0.00829
	114.50			  10.30645			  -0.42427			 0.11118
	114.75			  10.29183			  -0.50146			 0.22930
	115.00			  10.36268			  -0.51058			 0.24889
	115.25			  10.28747			  -0.48602			 0.13492
	115.50			  10.15349			  -0.40511			 -0.00186
	115.75			  10.28456			  -0.26597			 0.15110
	116.00			  10.31626			  -0.37349			 0.05822
	116.25			  10.40528			  -0.30001			 -0.00939
	116.50			  10.51074			  -0.45254			 -0.21109
	116.75			  10.35015			  -0.30783			 -0.18991
	117.00			  10.09771			  -0.21538			 -0.29682
	117.25			  10.19845			  -0.35507			 -0.03268
	117.50			  10.19482			  -0.41292			 -0.16569
	117.75			  10.38103			  -0.36995			 -0.11732
	118.00			  10.36077			  -0.35451			 -0.00036
	118.25			  10.30291			  -0.42966			 0.16188
	118.50			  10.28656			  -0.35619			 -0.03545
	118.75			  10.32735			  -0.15214			 -0.02059
	119.00			  10.55534			  -0.04146			 0.14663
	119.25			  10.66980			  0.32070			 0.05816
	119.50			  10.68887			  0.28833			 0.18696
	119.75			  10.60122			  0.19291			 0.11093
	120.00			  10.46751			  0.04392			 0.12813
	120.25			  10.55498			  0.29819			 -0.03462
	120.50			  10.56861			  0.25150			 -0.08867
	120.75			  10.58777			  0.32721			 -0.22771
	121.00			  10.43153			  0.23476			 -0.24220
	121.25			  10.46414			  0.13915			 -0.11002
	121.50			  10.48286			  0.23941			 -0.12584
	121.75			  10.35887			  0.36255			 -0.10574
	122.00			  10.17792			  0.26229			 -0.18822
	122.25			  10.11879			  0.32665			 -0.01002
	122.50			  10.09899			  0.17208			 0.04948
	122.75			  10.01669			  0.30005			 0.10184
	123.00			  10.02514			  0.23235			 -0.09148
	123.25			  9.96246			  0.33577			 -0.10845
	123.50			  10.05502			  0.26285			 -0.11707
	123.75			  10.14377			  0.27476			 -0.27675
	124.00			  10.13250			  0.13060			 -0.28116
	124.25			  10.11643			  0.07033			 -0.10549
	124.50			  10.04757			  -0.04797			 -0.14068
	124.75			  10.09826			  -0.11568			 -0.10695
	125.00			  10.12896			  -0.12051			 -0.19297
	125.25			  9.93494			  -0.07308			 -0.12243
	125.50			  10.06165			  0.04057			 -0.06535
	125.75			  10.20317			  0.03964			 -0.06733
	126.00			  10.18074			  0.03648			 -0.07393
	126.25			  10.18501			  0.05210			 -0.19638
	126.50			  10.10925			  0.02513			 -0.07103
	126.75			  10.17247			  0.05415			 -0.25126
	127.00			  10.24123			  0.05601			 -0.27860
	127.25			  10.35006			  0.11070			 -0.13375
	127.50			  10.34388			  0.16036			 0.08598
	127.75			  10.50075			  0.07163			 0.14459
	128.00			  10.51056			  0.03499			 0.17739
	128.25			  10.52827			  0.01397			 0.09328
	128.50			  10.44389			  -0.03848			 0.17659
	128.75			  10.44825			  -0.05541			 0.11664
	129.00			  10.41827			  -0.03625			 0.27885
	129.25			  10.42854			  -0.15976			 0.24184
	129.50			  10.49348			  -0.05411			 0.24458
	129.75			  10.52237			  -0.01077			 0.19235
	130.00			  10.33961			  0.18510			 0.31113
	130.25			  10.46841			  0.00932			 0.29882
	130.50			  10.41137			  -0.07048			 0.27106
	130.75			  10.22570			  0.06029			 0.09478
	131.00			  10.22361			  0.35697			 0.26602
	131.25			  10.19981			  0.37985			 0.04393
	131.50			  10.25967			  0.27941			 -0.02199
	131.75			  10.33852			  0.23030			 -0.04796
	132.00			  10.21171			  0.23216			 0.16447
	132.25			  10.20581			  0.21653			 0.03978
	132.50			  10.30918			  0.30675			 0.10394
	132.75			  10.12787			  0.12334			 0.36793
	133.00			  10.13786			  0.05638			 0.23871
	133.25			  10.14204			  0.13134			 0.20154
	133.50			  10.13259			  0.20444			 0.19860
	133.75			  10.11842			  0.12781			 0.00870
	134.00			  10.19881			  0.02867			 -0.02888
	134.25			  10.16866			  0.05861			 -0.10252
	134.50			  9.97100			  0.03927			 -0.09358
	134.75			  9.95628			  0.07628			 0.01722
	135.00			  9.66597			  0.03555			 -0.00173
	135.25			  9.63881			  -0.05932			 0.03394
	135.50			  9.68813			  -0.03421			 -0.00441
	135.75			  9.70894			  -0.03830			 0.08011
	136.00			  9.69504			  -0.02695			 -0.05839
	136.25			  9.81294			  -0.00054			 -0.21636
	136.50			  9.84283			  -0.02918			 -0.26042
	136.75			  10.06438			  -0.24012			 -0.18292
	137.00			  10.08872			  -0.42334			 -0.19804
	137.25			  9.95319			  -0.39004			 -0.13471
	137.50			  10.03858			  -0.29890			 -0.06407
	137.75			  10.17511			  -0.18190			 -0.05552
	138.00			  10.02977			  -0.01691			 -0.21546
	138.25			  10.10507			  0.04187			 -0.25212
	138.50			  10.25486			  0.08279			 -0.15197
	138.75			  10.34660			  0.12037			 -0.27835
	139.00			  10.32889			  0.08633			 -0.40737
	139.25			  10.28665			  0.11944			 -0.41895
	139.50			  10.18464			  0.09265			 -0.20012
	139.75			  10.14804			  0.17078			 -0.11678
	140.00			  10.10044			  0.14808			 0.04393
	140.25			  10.15321			  0.24388			 0.05832
	140.50			  10.36023			  0.26229			 0.18163
	140.75			  10.24432			  0.10381			 -0.03399
	141.00			  10.49485			  0.13674			 0.01808
	141.25			  10.46605			  0.06791			 0.05768
	141.50			  10.35305			  -0.15604			 -0.05884
	141.75			  10.36759			  -0.07531			 -0.00597
	142.00			  10.24986			  -0.14191			 0.00019
	142.25			  10.22443			  -0.25481			 0.08869
	142.50			  10.17447			  -0.14470			 0.07338
	142.75			  10.18900			  -0.09745			 0.17477
	143.00			  10.18392			  -0.08257			 -0.03076
	143.25			  10.10008			  -0.03495			 0.12248
	143.50			  10.13269			  0.06977			 0.13744
	143.75			  10.04585			  -0.18785			 0.03474
	144.00			  10.12069			  -0.36735			 0.12860
	144.25			  10.41173			  -0.27899			 0.19663
	144.50			  10.31654			  -0.41180			 0.27757
	144.75			  10.32462			  -0.48751			 0.33175
	145.00			  10.31218			  -0.33815			 0.19219
	145.25			  10.34515			  -0.19566			 0.20824
	145.50			  10.30146			  -0.23100			 0.26829
	145.75			  10.36059			  -0.18804			 0.35772
	146.00			  10.45161			  -0.19808			 0.32275
	146.25			  10.49212			  -0.05095			 0.36860
	146.50			  10.49194			  0.13171			 0.29738
	146.75			  10.44670			  -0.08926			 0.49938
	147.00			  10.40919			  -0.07085			 0.55361
	147.25			  10.24350			  -0.03811			 0.40050
	147.50			  10.34642			  -0.04034			 0.30855
	147.75			  10.26467			  -0.09503			 0.19564
	148.00			  10.25441			  -0.06732			 0.14481
	148.25			  10.35169			  0.00969			 0.14666
	148.50			  10.34270			  0.03276			 0.27167
	148.75			  10.34433			  -0.01133			 0.42130
	149.00			  10.39139			  0.14418			 0.38669
	149.25			  10.47050			  0.25950			 0.22911
	149.50			  10.46206			  0.10400			 0.25205
	149.75			  10.50102			  0.09135			 0.18715
	150.00			  10.64264			  0.12111			 0.30814
	150.25			  10.62610			  0.05787			 0.41164
	150.50			  10.62111			  0.09377			 0.49561
	150.75			  10.56116			  0.04410			 0.43850
	151.00			  10.66308			  -0.12293			 0.29352
	151.25			  10.62829			  -0.21408			 0.18409
	151.50			  10.64645			  -0.22468			 0.23807
	151.75			  10.78134			  -0.25184			 0.35178
	152.00			  10.62974			  -0.20645			 0.41215
	152.25			  10.62674			  -0.29071			 0.27112
	152.50			  10.75591			  -0.15400			 0.29091
	152.75			  10.82549			  -0.23491			 0.24669
	153.00			  10.94548			  -0.34819			 0.02539
	153.25			  10.98754			  -0.34614			 -0.02799
	153.50			  10.96220			  -0.30001			 -0.03922
	153.75			  11.01225			  -0.25332			 0.07851
	154.00			  10.84829			  -0.04444			 0.22786
	154.25			  10.79188			  -0.10601			 0.18051
	154.50			  10.85247			  -0.05932			 0.25862
	154.75			  10.80105			  -0.09429			 0.19487
	155.00			  10.76835			  -0.06471			 0.09852
	155.25			  10.62892			  -0.10563			 0.16475
	155.50			  10.66044			  -0.12405			 0.10308
	155.75			  10.61511			  -0.00165			 0.06230
	156.00			  10.56942			  0.13562			 0.07899
	156.25			  10.33670			  0.08930			 0.10767
	156.50			  10.26558			  0.06419			 -0.02400
	156.75			  10.32517			  -0.11177			 -0.05157
	157.00			  10.23224			  -0.15567			 -0.07648
	157.25			  10.23542			  -0.13781			 0.07934
	157.50			  10.49021			  -0.26337			 0.13189
	157.75			  10.51955			  -0.21538			 0.16865
	158.00			  10.23651			  -0.12851			 0.16006
	158.25			  10.25858			  0.07219			 0.05500
	158.50			  10.22434			  -0.02267			 0.16102
	158.75			  10.05747			  0.05619			 0.24490
	159.00			  10.18319			  0.30619			 0.13186
	159.25			  10.38721			  0.32405			 0.18935
	159.50			  10.50339			  0.18994			 0.23319
	159.75			  10.64682			  0.12223			 0.21746
	160.00			  10.74891			  0.05396			 0.28701
	160.25			  10.54263			  -0.06973			 0.03949
	160.50			  10.65227			  -0.06453			 -0.09419
	160.75			  10.53627			  0.07870			 -0.32027
	161.00			  10.43953			  0.29131			 -0.28805
	161.25			  10.50557			  0.42059			 -0.33769
	161.50			  10.56070			  0.61738			 -0.23196
	161.75			  10.54880			  0.53256			 -0.00830
	162.00			  10.73166			  0.52922			 -0.02933
	162.25			  10.69205			  0.48309			 0.01997
	162.50			  10.63174			  0.39269			 0.07724
	162.75			  10.52037			  0.30042			 0.11865
	163.00			  10.59295			  0.17431			 0.09648
	163.25			  10.61684			  0.27048			 0.21070
	163.50			  10.65481			  0.10865			 0.32757
	163.75			  10.67279			  0.10865			 0.24455
	164.00			  10.59813			  0.16520			 0.21232
	164.25			  10.42100			  0.18603			 -0.04069
	164.50			  10.30882			  0.14046			 0.02150
	164.75			  10.20199			  0.15757			 0.08604
	165.00			  10.11379			  0.14808			 -0.30451
	165.25			  10.14858			  0.22974			 -0.19284