--------------TurbSim v2.00.* User Time Series Input File-----------------------
     Time series input from low-res turbsim run
--------------------------------------------------------------------------------
          3 nComp - Number of velocity components in the file
          1 nPoints - Number of time series points contained in this file (-)
          1 RefPtID - Index of the reference point (1-nPoints)
     Pointyi Pointzi ! nPoints listed in order of increasing height
       (m)     (m)
       -2.85422   94.00000
--------Time Series-------------------------------------------------------------
Elapsed Time         Point01u             Point01v           Point01w
         (s)            (m/s)                (m/s)              (m/s)
	0.00			  10.34182			  -0.52384			 0.07726
	0.25			  10.25326			  -0.39398			 0.16967
	0.50			  10.25129			  -0.34667			 0.16650
	0.75			  10.15667			  -0.36244			 0.17769
	1.00			  10.11342			  -0.30409			 0.27656
	1.25			  10.22432			  -0.28621			 0.23724
	1.50			  10.36629			  -0.30461			 0.28409
	1.75			  10.32697			  -0.26080			 0.29649
	2.00			  10.33462			  -0.17792			 0.27040
	2.25			  10.36689			  -0.13393			 0.21292
	2.50			  10.26538			  0.02886			 0.09192
	2.75			  10.34470			  -0.04947			 0.14688
	3.00			  10.33083			  -0.21805			 0.29292
	3.25			  10.43704			  -0.29690			 0.44690
	3.50			  10.34803			  -0.34387			 0.33543
	3.75			  10.23728			  -0.25520			 0.32895
	4.00			  10.25129			  -0.20858			 0.32772
	4.25			  10.21250			  -0.23277			 0.32943
	4.50			  10.21091			  -0.28744			 0.20161
	4.75			  10.21963			  -0.23504			 0.25068
	5.00			  10.34091			  -0.18265			 0.28732
	5.25			  10.22659			  -0.32214			 0.25298
	5.50			  10.23538			  -0.22471			 0.11664
	5.75			  10.20667			  -0.21121			 0.15836
	6.00			  10.30856			  -0.35280			 0.18309
	6.25			  10.25372			  -0.31600			 0.11156
	6.50			  10.17516			  -0.30602			 0.10345
	6.75			  10.21591			  -0.31390			 0.07162
	7.00			  10.20349			  -0.25029			 0.11426
	7.25			  10.22576			  -0.21419			 0.14874
	7.50			  10.31546			  -0.28954			 0.13285
	7.75			  10.30137			  -0.35894			 0.10302
	8.00			  10.42356			  -0.28323			 0.05730
	8.25			  10.46409			  -0.08890			 0.10340
	8.50			  10.42432			  -0.11483			 0.25190
	8.75			  10.53174			  -0.12167			 0.27411
	9.00			  10.44894			  -0.16022			 0.17367
	9.25			  10.42598			  -0.33423			 0.16299
	9.50			  10.37848			  -0.28008			 0.06786
	9.75			  10.39394			  -0.35298			 0.04012
	10.00			  10.41121			  -0.39889			 0.16391
	10.25			  10.41644			  -0.51455			 0.04462
	10.50			  10.46128			  -0.40205			 0.05222
	10.75			  10.38523			  -0.35350			 0.18572
	11.00			  10.40742			  -0.15426			 0.18916
	11.25			  10.50666			  -0.17108			 0.15767
	11.50			  10.50204			  -0.22839			 -0.05519
	11.75			  10.61242			  -0.14778			 -0.09668
	12.00			  10.57719			  -0.27728			 -0.04819
	12.25			  10.74484			  -0.24714			 -0.18806
	12.50			  10.66461			  -0.25467			 -0.21364
	12.75			  10.55325			  -0.17266			 -0.10891
	13.00			  10.48818			  -0.23750			 -0.08459
	13.25			  10.49901			  -0.22839			 -0.02605
	13.50			  10.35750			  -0.38943			 -0.08029
	13.75			  10.24061			  -0.50947			 0.03345
	14.00			  10.19932			  -0.58307			 0.00530
	14.25			  10.24008			  -0.47039			 0.02120
	14.50			  10.40030			  -0.43849			 0.05150
	14.75			  10.43568			  -0.42045			 0.14559
	15.00			  10.38553			  -0.43306			 0.20782
	15.25			  10.37924			  -0.40047			 0.10017
	15.50			  10.38197			  -0.45076			 -0.02390
	15.75			  10.37015			  -0.50473			 0.07191
	16.00			  10.43007			  -0.45234			 0.20528
	16.25			  10.40613			  -0.29936			 0.14582
	16.50			  10.38303			  -0.29725			 0.10437
	16.75			  10.29818			  -0.36998			 -0.04689
	17.00			  10.20008			  -0.28201			 -0.05411
	17.25			  10.26326			  -0.23171			 0.00735
	17.50			  10.20061			  -0.33090			 0.02439
	17.75			  10.14395			  -0.41466			 -0.02075
	18.00			  10.09834			  -0.33020			 -0.13838
	18.25			  10.05304			  -0.34947			 -0.02718
	18.50			  10.10766			  -0.41291			 -0.09900
	18.75			  10.13129			  -0.51262			 -0.11428
	19.00			  10.23879			  -0.43061			 0.00596
	19.25			  10.25129			  -0.42483			 -0.14373
	19.50			  10.24137			  -0.38540			 -0.24909
	19.75			  10.23099			  -0.54714			 -0.33430
	20.00			  10.27727			  -0.43289			 -0.17007
	20.25			  10.39682			  -0.57798			 -0.15077
	20.50			  10.42621			  -0.52734			 -0.08564
	20.75			  10.38932			  -0.56940			 0.04269
	21.00			  10.45818			  -0.39188			 -0.02563
	21.25			  10.46856			  -0.26115			 0.10904
	21.50			  10.41492			  -0.27535			 0.09558
	21.75			  10.36129			  -0.20157			 0.21791
	22.00			  10.45166			  -0.17284			 0.13215
	22.25			  10.34795			  -0.19211			 0.20982
	22.50			  10.21606			  -0.07453			 0.19835
	22.75			  10.15440			  -0.12868			 0.12700
	23.00			  10.19554			  -0.12149			 0.03381
	23.25			  10.17235			  -0.12675			 0.16569
	23.50			  10.19970			  -0.14883			 0.21553
	23.75			  10.25750			  -0.19491			 0.28062
	24.00			  10.39507			  -0.24188			 0.26237
	24.25			  10.29894			  -0.24994			 0.22515
	24.50			  10.36068			  -0.31495			 -0.02012
	24.75			  10.29167			  -0.48353			 0.03275
	25.00			  10.25212			  -0.43149			 0.08830
	25.25			  10.21993			  -0.32774			 0.05844
	25.50			  10.20500			  -0.29971			 0.05361
	25.75			  10.13986			  -0.40134			 0.14038
	26.00			  10.17591			  -0.40222			 0.10444
	26.25			  10.13432			  -0.36174			 0.07706
	26.50			  10.22008			  -0.30409			 0.18482
	26.75			  10.08183			  -0.42115			 0.13959
	27.00			  10.03266			  -0.50841			 0.07537
	27.25			  10.14167			  -0.46233			 0.08009
	27.50			  10.29311			  -0.42781			 0.12584
	27.75			  10.20819			  -0.56291			 0.35020
	28.00			  10.25265			  -0.50701			 0.27291
	28.25			  10.39939			  -0.52909			 0.20849
	28.50			  10.33591			  -0.58482			 0.17394
	28.75			  10.40257			  -0.43674			 0.11055
	29.00			  10.41939			  -0.43026			 0.13002
	29.25			  10.31493			  -0.45427			 0.18464
	29.50			  10.22705			  -0.44358			 0.12350
	29.75			  10.21629			  -0.53785			 -0.02965
	30.00			  10.29690			  -0.55941			 -0.07811
	30.25			  10.23470			  -0.49317			 0.11781
	30.50			  10.26273			  -0.37190			 0.05193
	30.75			  10.29447			  -0.36630			 -0.03484
	31.00			  10.40363			  -0.36454			 -0.10731
	31.25			  10.35417			  -0.26676			 -0.14020
	31.50			  10.29220			  -0.29620			 -0.04595
	31.75			  10.27538			  -0.32442			 -0.11107
	32.00			  10.34530			  -0.32056			 0.00342
	32.25			  10.35621			  -0.27167			 -0.00832
	32.50			  10.37326			  -0.09959			 -0.05555
	32.75			  10.28773			  -0.17616			 0.00090
	33.00			  10.35833			  -0.30339			 -0.02808
	33.25			  10.35833			  -0.47056			 -0.11365
	33.50			  10.35674			  -0.48230			 -0.15629
	33.75			  10.45742			  -0.55415			 -0.16956
	34.00			  10.42818			  -0.42097			 -0.04806
	34.25			  10.37151			  -0.26589			 -0.07582
	34.50			  10.38136			  -0.24275			 0.06597
	34.75			  10.45356			  -0.24784			 0.02632
	35.00			  10.34939			  -0.19754			 0.14474
	35.25			  10.25675			  -0.17056			 0.06503
	35.50			  10.32523			  -0.10099			 -0.04188
	35.75			  10.37644			  0.01186			 0.13346
	36.00			  10.36159			  -0.18861			 -0.02432
	36.25			  10.34992			  -0.22260			 -0.10994
	36.50			  10.39182			  -0.23487			 -0.23551
	36.75			  10.37371			  -0.18896			 -0.08371
	37.00			  10.43856			  -0.14953			 -0.02951
	37.25			  10.32849			  -0.14637			 -0.05761
	37.50			  10.21796			  -0.19404			 -0.07886
	37.75			  10.18713			  -0.21735			 -0.18379
	38.00			  10.15266			  -0.24240			 -0.14591
	38.25			  10.23319			  -0.29357			 -0.13779
	38.50			  10.26288			  -0.20508			 -0.10455
	38.75			  10.10963			  -0.20806			 -0.14229
	39.00			  10.20455			  -0.23417			 -0.06472
	39.25			  10.27417			  -0.17581			 -0.10880
	39.50			  10.28712			  -0.06436			 -0.19563
	39.75			  10.29849			  0.03798			 -0.28683
	40.00			  10.25349			  0.04271			 -0.19736
	40.25			  10.22053			  -0.16144			 -0.11125
	40.50			  10.17781			  0.00486			 -0.03862
	40.75			  10.09319			  0.04586			 -0.13741
	41.00			  9.98365			  0.03903			 -0.05222
	41.25			  10.03031			  0.00871			 -0.13604
	41.50			  9.98372			  0.01064			 -0.05289
	41.75			  10.05872			  -0.08785			 0.00378
	42.00			  10.02569			  -0.01512			 0.05617
	42.25			  9.93130			  0.00696			 -0.02232
	42.50			  9.91138			  -0.05911			 -0.14371
	42.75			  10.07978			  -0.17178			 -0.11961
	43.00			  10.12372			  -0.21069			 -0.12449
	43.25			  10.07084			  -0.33388			 -0.15591
	43.50			  10.02796			  -0.32985			 -0.16792
	43.75			  10.05743			  -0.24976			 -0.16969
	44.00			  10.13569			  -0.04912			 -0.12748
	44.25			  10.12546			  -0.03335			 -0.20656
	44.50			  10.02198			  -0.00180			 -0.11747
	44.75			  10.11872			  0.03219			 -0.18131
	45.00			  10.03092			  0.00100			 -0.18968
	45.25			  9.92070			  -0.04421			 -0.26586
	45.50			  9.95365			  0.07337			 -0.02999
	45.75			  9.95615			  -0.01109			 -0.04846
	46.00			  9.81373			  0.03762			 0.04096
	46.25			  9.89297			  0.07074			 -0.10486
	46.50			  9.95092			  -0.03247			 -0.06274
	46.75			  10.15455			  -0.10887			 -0.06737
	47.00			  10.20326			  -0.06173			 -0.19999
	47.25			  10.20599			  0.01502			 -0.11684
	47.50			  10.09690			  0.09475			 -0.06528
	47.75			  10.02350			  -0.02283			 -0.00780
	48.00			  10.20167			  0.02115			 0.12231
	48.25			  10.26864			  0.03272			 0.11527
	48.50			  10.28220			  -0.17003			 0.10421
	48.75			  10.24432			  -0.25730			 -0.03044
	49.00			  10.26576			  -0.13919			 0.01335
	49.25			  10.26644			  -0.15899			 -0.04999
	49.50			  10.27182			  -0.03860			 -0.05139
	49.75			  10.25765			  -0.02984			 -0.05359
	50.00			  10.22629			  -0.00759			 -0.09954
	50.25			  10.35439			  -0.19246			 -0.07083
	50.50			  10.42197			  -0.25537			 -0.04138
	50.75			  10.49197			  -0.23014			 0.07274
	51.00			  10.48666			  -0.20876			 0.07971
	51.25			  10.48250			  -0.16810			 -0.03048
	51.50			  10.54446			  -0.32266			 0.01578
	51.75			  10.39523			  -0.31408			 0.06256
	52.00			  10.39704			  -0.09047			 0.12503
	52.25			  10.39939			  -0.12832			 0.13854
	52.50			  10.34833			  -0.20841			 0.06150
	52.75			  10.36288			  -0.13533			 -0.00353
	53.00			  10.37757			  -0.04526			 -0.11779
	53.25			  10.37545			  -0.11150			 0.00459
	53.50			  10.23425			  -0.15181			 -0.03972
	53.75			  10.19288			  -0.31092			 -0.05426
	54.00			  10.14842			  -0.29130			 -0.12242
	54.25			  10.15493			  -0.42448			 -0.02967
	54.50			  10.17735			  -0.54749			 0.04792
	54.75			  10.16129			  -0.42553			 -0.02942
	55.00			  10.05690			  -0.37699			 0.09360
	55.25			  10.15796			  -0.47372			 -0.00254
	55.50			  10.18773			  -0.50947			 0.00479
	55.75			  10.16440			  -0.58920			 -0.03588
	56.00			  9.98675			  -0.56975			 -0.00094
	56.25			  10.08319			  -0.55906			 0.08672
	56.50			  10.10599			  -0.59866			 0.18972
	56.75			  10.16251			  -0.64440			 0.13892
	57.00			  10.14546			  -0.71397			 0.11365
	57.25			  10.07584			  -0.62004			 -0.06081
	57.50			  10.17160			  -0.62039			 -0.12312
	57.75			  10.22796			  -0.67857			 -0.06986
	58.00			  10.31167			  -0.73973			 -0.01605
	58.25			  10.26326			  -0.62985			 0.03882
	58.50			  10.15016			  -0.65351			 -0.03120
	58.75			  10.00448			  -0.54854			 0.02183
	59.00			  10.02350			  -0.40818			 -0.03084
	59.25			  10.05137			  -0.40765			 0.07751
	59.50			  10.10016			  -0.33248			 0.12404
	59.75			  10.15804			  -0.29830			 0.03149
	60.00			  10.14266			  -0.28902			 -0.04386
	60.25			  10.17099			  -0.35210			 -0.12941
	60.50			  10.20917			  -0.36244			 -0.12384
	60.75			  10.21046			  -0.39872			 -0.13139
	61.00			  10.16940			  -0.35666			 -0.04959
	61.25			  10.09728			  -0.41221			 -0.12192
	61.50			  10.06561			  -0.34211			 -0.06391
	61.75			  10.18144			  -0.23750			 -0.05658
	62.00			  10.23493			  -0.16898			 -0.03354
	62.25			  10.25235			  -0.09082			 -0.03282
	62.50			  10.29841			  -0.09117			 -0.06681
	62.75			  10.34561			  -0.05630			 -0.05107
	63.00			  10.29932			  -0.10817			 -0.09045
	63.25			  10.27493			  -0.27938			 -0.03567
	63.50			  10.17122			  -0.19211			 -0.14108
	63.75			  10.07410			  -0.24608			 -0.07092
	64.00			  10.06683			  -0.14357			 -0.05507
	64.25			  10.15690			  -0.24503			 -0.11826
	64.50			  10.11986			  -0.26186			 -0.17383
	64.75			  10.01751			  -0.26448			 -0.22937
	65.00			  10.03577			  -0.33283			 -0.24407
	65.25			  10.00069			  -0.40345			 -0.17524
	65.50			  9.94956			  -0.29673			 -0.05471
	65.75			  9.97562			  -0.21997			 -0.03619
	66.00			  10.11660			  -0.15601			 -0.12464
	66.25			  10.20311			  -0.07873			 -0.00488
	66.50			  10.16554			  -0.12832			 0.07629
	66.75			  10.18288			  -0.14234			 0.12419
	67.00			  10.15425			  -0.15759			 0.16697
	67.25			  10.15114			  -0.15812			 0.18968
	67.50			  10.07402			  -0.29024			 0.21195
	67.75			  10.20175			  -0.30847			 0.15683
	68.00			  10.10933			  -0.25818			 0.25819
	68.25			  10.20455			  -0.33633			 0.27053
	68.50			  10.24281			  -0.25993			 0.22625
	68.75			  10.20538			  -0.16320			 0.23976
	69.00			  10.20819			  -0.20999			 0.24981
	69.25			  10.19311			  -0.26483			 0.25385
	69.50			  10.28606			  -0.25257			 0.19282
	69.75			  10.31447			  -0.20403			 0.13678
	70.00			  10.26061			  -0.33265			 0.18734
	70.25			  10.19614			  -0.39977			 0.13348
	70.50			  10.10289			  -0.47757			 0.03372
	70.75			  10.15546			  -0.51507			 0.13388
	71.00			  10.20508			  -0.37979			 0.03833
	71.25			  10.05455			  -0.49369			 -0.04547
	71.50			  10.18107			  -0.49597			 -0.05307
	71.75			  10.14031			  -0.54048			 0.00218
	72.00			  10.09198			  -0.51350			 0.03228
	72.25			  10.08531			  -0.40765			 0.12067
	72.50			  10.11152			  -0.45251			 0.14867
	72.75			  10.15031			  -0.40941			 -0.00344
	73.00			  10.20228			  -0.41098			 -0.01434
	73.25			  10.16910			  -0.43096			 -0.06750
	73.50			  10.14334			  -0.47722			 -0.01367
	73.75			  10.14243			  -0.44603			 -0.03986
	74.00			  10.06274			  -0.46022			 -0.01360
	74.25			  10.12296			  -0.40573			 -0.09432
	74.50			  10.13516			  -0.43709			 -0.14528
	74.75			  10.19682			  -0.46934			 -0.09540
	75.00			  10.34667			  -0.39381			 -0.16380
	75.25			  10.40780			  -0.53470			 -0.16068
	75.50			  10.34674			  -0.36192			 -0.09861
	75.75			  10.27538			  -0.26115			 -0.21004
	76.00			  10.29106			  -0.18878			 -0.21822
	76.25			  10.18622			  -0.17581			 -0.28076
	76.50			  10.12357			  -0.23469			 -0.21591
	76.75			  10.07054			  -0.32038			 -0.32961
	77.00			  10.09145			  -0.38557			 -0.29506
	77.25			  10.28515			  -0.51402			 -0.19723
	77.50			  10.33371			  -0.54381			 -0.07964
	77.75			  10.29780			  -0.52156			 -0.17927
	78.00			  10.24296			  -0.39959			 -0.17628
	78.25			  10.11372			  -0.31162			 -0.09745
	78.50			  10.09546			  -0.32582			 -0.12849
	78.75			  10.17879			  -0.37786			 -0.03408
	79.00			  10.20326			  -0.37208			 0.01845
	79.25			  10.12372			  -0.43955			 0.05640
	79.50			  10.04637			  -0.45672			 0.00852
	79.75			  9.98774			  -0.38750			 0.03871
	80.00			  9.95516			  -0.38785			 -0.07663
	80.25			  9.86676			  -0.36560			 -0.05559
	80.50			  9.82267			  -0.31355			 -0.37474
	80.75			  9.86805			  -0.33843			 -0.41592
	81.00			  9.91418			  -0.24100			 -0.18399
	81.25			  9.99395			  -0.22909			 -0.21112
	81.50			  10.09402			  -0.19807			 -0.21759
	81.75			  10.08948			  -0.20052			 -0.24688
	82.00			  10.13334			  -0.12517			 -0.24122
	82.25			  10.09978			  -0.15426			 -0.10891
	82.50			  10.14826			  -0.14515			 -0.09751
	82.75			  10.15698			  -0.13043			 -0.03149
	83.00			  10.10304			  -0.09906			 -0.06330
	83.25			  10.12099			  -0.01670			 -0.01994
	83.50			  10.11531			  -0.06506			 0.00955
	83.75			  10.02266			  0.05392			 0.18812
	84.00			  9.94842			  0.05865			 0.20067
	84.25			  10.02039			  -0.09345			 0.24940
	84.50			  9.97494			  -0.17879			 0.17345
	84.75			  10.03198			  -0.15461			 0.20035
	85.00			  10.02471			  -0.09538			 0.29937
	85.25			  9.98592			  -0.12307			 0.32001
	85.50			  10.08637			  -0.10940			 0.30719
	85.75			  10.06857			  -0.05683			 0.30470
	86.00			  10.02456			  0.02956			 0.08077
	86.25			  10.01206			  0.06409			 0.24637
	86.50			  10.04107			  0.05375			 0.14067
	86.75			  9.98160			  -0.03843			 0.13395
	87.00			  9.95827			  -0.13726			 0.15692
	87.25			  9.99221			  0.00486			 0.21308
	87.50			  9.84630			  -0.05245			 0.17095
	87.75			  9.95168			  -0.07593			 0.11505
	88.00			  9.96751			  -0.09959			 0.17952
	88.25			  9.93948			  -0.09906			 0.24931
	88.50			  10.15834			  -0.06314			 0.19136
	88.75			  10.19629			  -0.02038			 0.00180
	89.00			  10.24682			  -0.11168			 0.19026
	89.25			  10.26258			  -0.27850			 0.17947
	89.50			  10.13092			  -0.42009			 0.07285
	89.75			  10.01600			  -0.52384			 0.05073
	90.00			  10.07516			  -0.55958			 -0.01230
	90.25			  9.96615			  -0.49667			 0.00115
	90.50			  9.95365			  -0.39451			 -0.01198
	90.75			  10.12145			  -0.50070			 0.06013
	91.00			  10.17228			  -0.45041			 0.05528
	91.25			  10.19796			  -0.38557			 0.06712
	91.50			  10.19410			  -0.30356			 -0.01454
	91.75			  10.30296			  -0.37716			 -0.07378
	92.00			  10.34417			  -0.53593			 -0.01985
	92.25			  10.38947			  -0.44217			 0.02117
	92.50			  10.42576			  -0.42570			 0.23951
	92.75			  10.33371			  -0.42693			 0.17360
	93.00			  10.37667			  -0.58517			 0.15142
	93.25			  10.40303			  -0.54662			 0.05190
	93.50			  10.40538			  -0.63090			 0.03012
	93.75			  10.40318			  -0.64825			 0.06092
	94.00			  10.46644			  -0.52506			 -0.00573
	94.25			  10.46053			  -0.45584			 0.15407
	94.50			  10.46431			  -0.40870			 0.27474
	94.75			  10.49712			  -0.25082			 0.12770
	95.00			  10.63029			  -0.16355			 0.13809
	95.25			  10.64688			  -0.22926			 0.03066
	95.50			  10.49500			  -0.28954			 0.15897
	95.75			  10.53954			  -0.34422			 0.07503
	96.00			  10.57560			  -0.31565			 0.03999
	96.25			  10.71506			  -0.32669			 0.09657
	96.50			  10.60643			  -0.36577			 0.06847
	96.75			  10.58158			  -0.22471			 0.08169
	97.00			  10.45136			  -0.27430			 0.11511
	97.25			  10.38962			  -0.29024			 0.14108
	97.50			  10.38091			  -0.27290			 -0.00438
	97.75			  10.38220			  -0.24468			 -0.04568
	98.00			  10.39826			  -0.14410			 0.00151
	98.25			  10.30780			  -0.13130			 -0.09882
	98.50			  10.32886			  -0.07383			 -0.13771
	98.75			  10.37561			  0.06321			 -0.12098
	99.00			  10.44538			  0.11193			 0.01843
	99.25			  10.41780			  0.32151			 0.05903
	99.50			  10.38917			  0.18640			 -0.02219
	99.75			  10.44318			  0.06076			 -0.07272
	100.00			  10.29833			  0.05550			 -0.07090
	100.25			  10.28015			  0.04779			 -0.08531
	100.50			  10.22826			  -0.04193			 -0.07175
	100.75			  10.21599			  -0.15496			 -0.17972
	101.00			  10.35417			  -0.05683			 0.01207
	101.25			  10.45841			  -0.15619			 -0.06339
	101.50			  10.48931			  -0.14655			 -0.00544
	101.75			  10.34962			  -0.07961			 0.07416
	102.00			  10.36917			  0.15205			 -0.13373
	102.25			  10.31689			  0.09247			 -0.14629
	102.50			  10.33402			  0.13208			 -0.11601
	102.75			  10.37121			  0.04043			 -0.05566
	103.00			  10.30394			  0.07793			 -0.10709
	103.25			  10.23493			  0.01572			 -0.18340
	103.50			  10.22584			  0.02028			 -0.18943
	103.75			  10.17766			  0.06671			 -0.17097
	104.00			  10.18485			  -0.07453			 -0.23317
	104.25			  10.26258			  -0.02126			 -0.15313
	104.50			  10.24849			  0.02501			 -0.22829
	104.75			  10.29440			  -0.11991			 -0.14863
	105.00			  10.18788			  -0.08574			 0.01704
	105.25			  10.18334			  0.19621			 0.11673
	105.50			  10.12008			  0.27297			 0.20597
	105.75			  10.12773			  0.15591			 0.20579
	106.00			  10.13395			  0.10754			 0.12842
	106.25			  10.18887			  0.14855			 0.26725
	106.50			  10.11205			  0.02483			 0.22922
	106.75			  10.08607			  0.10457			 0.05269
	107.00			  10.23402			  0.15293			 0.03064
	107.25			  10.15531			  0.32571			 0.18147
	107.50			  9.95395			  0.25947			 0.07061
	107.75			  9.89630			  0.10264			 0.28696
	108.00			  10.00198			  0.04078			 0.20175
	108.25			  9.85691			  0.08319			 0.20051
	108.50			  9.92107			  0.00731			 0.17250
	108.75			  9.90297			  0.00521			 0.04689
	109.00			  9.74714			  -0.07330			 0.00573
	109.25			  9.82721			  -0.06945			 0.04619
	109.50			  9.80630			  0.00573			 -0.08827
	109.75			  9.91645			  -0.13919			 -0.12179
	110.00			  9.90456			  -0.14988			 -0.14742
	110.25			  10.06281			  -0.22786			 -0.25118
	110.50			  10.03425			  -0.19859			 -0.05301
	110.75			  9.99009			  -0.16074			 -0.06099
	111.00			  9.97259			  -0.12096			 -0.08650
	111.25			  9.86062			  -0.20263			 -0.04129
	111.50			  9.95054			  -0.24801			 0.03441
	111.75			  10.01781			  -0.04333			 -0.00090
	112.00			  9.87100			  0.01029			 0.02129
	112.25			  9.76282			  -0.12044			 0.03217
	112.50			  9.78668			  -0.19351			 -0.00575
	112.75			  9.90956			  0.02220			 -0.10763
	113.00			  9.88448			  0.01835			 0.02048
	113.25			  9.87198			  -0.17546			 -0.08899
	113.50			  9.86820			  -0.31338			 -0.07414
	113.75			  9.70146			  -0.21314			 -0.09623
	114.00			  9.68267			  -0.04246			 -0.00785
	114.25			  9.83570			  -0.12517			 0.00065
	114.50			  9.84335			  -0.13568			 0.06373
	114.75			  9.92403			  -0.15408			 -0.02407
	115.00			  9.90009			  -0.08381			 -0.09439
	115.25			  9.77282			  -0.04246			 0.22989
	115.50			  9.74896			  -0.05157			 0.18390
	115.75			  9.83320			  0.04183			 0.09933
	116.00			  9.84479			  -0.04912			 0.07099
	116.25			  9.78608			  -0.01214			 0.04410
	116.50			  9.91691			  0.02729			 0.03646
	116.75			  10.01698			  0.05340			 0.08634
	117.00			  10.15569			  -0.02090			 0.00364
	117.25			  10.00774			  0.04463			 0.13101
	117.50			  10.05751			  0.22741			 0.07047
	117.75			  9.96539			  0.23950			 0.14827
	118.00			  9.90812			  0.34674			 0.10749
	118.25			  9.94418			  0.34149			 -0.12595
	118.50			  10.00244			  0.29259			 -0.17484
	118.75			  10.04448			  0.38091			 -0.28067
	119.00			  10.14425			  0.41789			 -0.29742
	119.25			  10.06365			  0.44207			 -0.38897
	119.50			  10.15235			  0.43962			 -0.36602
	119.75			  10.12069			  0.36567			 -0.22616
	120.00			  10.07266			  0.33518			 -0.17547
	120.25			  10.12175			  0.38354			 -0.08652
	120.50			  10.15296			  0.36409			 -0.02306
	120.75			  10.21031			  0.31976			 0.05064
	121.00			  10.09372			  0.41771			 0.10954
	121.25			  10.07804			  0.45679			 0.07724
	121.50			  10.13334			  0.47887			 0.12907
	121.75			  10.16857			  0.39528			 0.09468
	122.00			  10.12326			  0.25965			 0.08973
	122.25			  10.08857			  0.26298			 0.13701
	122.50			  10.11069			  0.17869			 0.07623
	122.75			  10.13349			  0.09913			 0.16513
	123.00			  10.17766			  0.01940			 0.06242
	123.25			  10.17107			  0.01397			 -0.08122
	123.50			  10.10773			  -0.01162			 -0.11968
	123.75			  10.13463			  -0.04894			 -0.00897
	124.00			  10.17925			  -0.09889			 -0.07701
	124.25			  10.19008			  -0.17599			 -0.05590
	124.50			  10.11084			  -0.08189			 -0.07076
	124.75			  10.24826			  -0.01372			 0.02111
	125.00			  10.25349			  -0.04999			 0.11260
	125.25			  10.29000			  -0.07102			 0.16562
	125.50			  10.47530			  -0.00636			 0.09771
	125.75			  10.42909			  0.01274			 0.16722
	126.00			  10.49310			  -0.07348			 0.21081
	126.25			  10.47136			  0.02799			 -0.05892
	126.50			  10.45454			  -0.00986			 -0.01311
	126.75			  10.44735			  0.06654			 -0.18257
	127.00			  10.42106			  -0.00128			 -0.26395
	127.25			  10.30652			  -0.07978			 -0.20555
	127.50			  10.25856			  -0.07873			 -0.07038
	127.75			  10.23962			  -0.02949			 0.03450
	128.00			  10.24561			  0.01800			 0.09428
	128.25			  10.40136			  -0.06191			 0.05438
	128.50			  10.44560			  -0.01600			 -0.05431
	128.75			  10.44788			  -0.10309			 0.07670
	129.00			  10.59067			  -0.23224			 -0.04739
	129.25			  10.60226			  -0.24170			 0.02731
	129.50			  10.59651			  -0.34912			 0.01839
	129.75			  10.48159			  -0.32442			 0.04332
	130.00			  10.43174			  -0.20876			 0.15627
	130.25			  10.52181			  -0.02073			 0.06045
	130.50			  10.52143			  -0.00864			 0.05269
	130.75			  10.43098			  -0.01232			 0.16715
	131.00			  10.35235			  -0.03194			 0.27550
	131.25			  10.31553			  0.04919			 0.29164
	131.50			  10.33697			  0.13365			 0.18628
	131.75			  10.30470			  0.16117			 0.15067
	132.00			  10.13576			  0.21093			 0.05175
	132.25			  10.11031			  0.40124			 0.06910
	132.50			  10.11630			  0.25912			 0.20658
	132.75			  9.92441			  0.29137			 0.20671
	133.00			  9.90274			  0.13909			 0.18277
	133.25			  10.02743			  0.07863			 0.22789
	133.50			  10.11508			  0.09721			 0.29031
	133.75			  10.08667			  0.21549			 0.32823
	134.00			  10.16182			  0.16344			 0.23212
	134.25			  10.15387			  0.25282			 0.16974
	134.50			  10.13251			  0.19113			 0.09697
	134.75			  9.98092			  0.25615			 0.21299
	135.00			  10.04759			  0.28541			 0.10462
	135.25			  10.00653			  0.27314			 0.03221
	135.50			  10.02622			  0.26841			 0.17677
	135.75			  10.01160			  0.24756			 0.20703
	136.00			  10.00486			  0.07495			 0.17581
	136.25			  10.02395			  -0.01740			 0.23666
	136.50			  10.13637			  0.19183			 0.23814
	136.75			  10.06766			  0.23039			 0.16232
	137.00			  10.00312			  0.25422			 0.06492
	137.25			  10.05251			  0.32554			 0.05429
	137.50			  10.06236			  0.31257			 0.08349
	137.75			  9.84176			  0.19762			 0.32464
	138.00			  9.75600			  0.25387			 0.35552
	138.25			  9.68169			  0.21199			 0.22764
	138.50			  9.68457			  0.29400			 0.01214
	138.75			  9.74714			  0.24528			 0.03154
	139.00			  9.89289			  0.32869			 0.16767
	139.25			  9.96016			  0.53460			 0.22256
	139.50			  10.06115			  0.45714			 0.23558
	139.75			  10.14122			  0.33781			 0.21245
	140.00			  10.14887			  0.31870			 0.09886
	140.25			  10.03372			  0.25264			 0.16971
	140.50			  9.96842			  0.19341			 0.05226
	140.75			  9.98319			  0.17028			 -0.08232
	141.00			  9.98092			  0.02746			 -0.02372
	141.25			  10.04955			  0.03324			 -0.08805
	141.50			  9.88789			  0.02939			 -0.05665
	141.75			  9.86623			  -0.01232			 -0.11696
	142.00			  9.76237			  0.05988			 -0.07009
	142.25			  9.75199			  -0.08294			 0.02942
	142.50			  9.72532			  -0.00426			 -0.00654
	142.75			  9.78403			  0.12840			 0.01913
	143.00			  9.81055			  0.06041			 -0.12208
	143.25			  9.87918			  0.18447			 0.01344
	143.50			  9.79365			  0.12717			 0.09219
	143.75			  9.79115			  0.02343			 -0.05676
	144.00			  9.82343			  -0.01968			 -0.08603
	144.25			  9.98206			  -0.04491			 0.04999
	144.50			  10.10349			  -0.06682			 -0.04680
	144.75			  10.05236			  -0.08417			 -0.00414
	145.00			  10.05205			  -0.00706			 0.01542
	145.25			  10.04978			  0.13839			 0.04282
	145.50			  10.14789			  0.09545			 0.13510
	145.75			  10.28068			  0.11613			 0.06959
	146.00			  10.26561			  0.17080			 -0.01257
	146.25			  10.18144			  0.05059			 -0.19772
	146.50			  10.08122			  -0.02213			 -0.05357
	146.75			  9.96524			  0.19884			 0.02322
	147.00			  9.91115			  0.28191			 0.06935
	147.25			  9.86782			  0.13313			 -0.00740
	147.50			  9.83646			  -0.03194			 0.13685
	147.75			  9.73161			  -0.08872			 0.12860
	148.00			  9.82153			  -0.06191			 -0.05413
	148.25			  9.79426			  0.00941			 -0.10862
	148.50			  9.74896			  -0.01267			 -0.04525
	148.75			  9.74070			  -0.03352			 0.02448
	149.00			  9.81487			  0.03254			 0.16704
	149.25			  9.87358			  -0.03072			 0.15625
	149.50			  9.71608			  0.00661			 0.05035
	149.75			  9.84002			  0.16082			 -0.03806
	150.00			  9.93069			  0.11140			 -0.03707
	150.25			  10.01001			  0.13155			 -0.04682
	150.50			  10.24584			  0.11964			 0.17367
	150.75			  10.28417			  0.25842			 0.03860
	151.00			  10.19114			  0.29978			 -0.10097
	151.25			  10.15213			  0.34166			 -0.19428
	151.50			  9.99077			  0.47659			 -0.15468
	151.75			  9.97342			  0.37969			 -0.15715
	152.00			  10.02842			  0.34078			 -0.22223
	152.25			  10.18728			  0.35305			 -0.06051
	152.50			  10.30606			  0.34131			 0.03262
	152.75			  10.09758			  0.21602			 -0.08153
	153.00			  10.06145			  0.21654			 -0.12566
	153.25			  10.03009			  0.08792			 -0.11039
	153.50			  10.15319			  0.07337			 -0.09897
	153.75			  10.24940			  -0.04772			 -0.06775
	154.00			  10.16122			  0.01029			 -0.07820
	154.25			  10.17319			  0.05865			 0.03280
	154.50			  10.25288			  0.19744			 0.06274
	154.75			  10.15682			  0.04902			 0.15263
	155.00			  10.17561			  0.04814			 0.05456
	155.25			  10.24334			  0.03517			 0.14764
	155.50			  10.20940			  -0.04263			 0.23582
	155.75			  10.23228			  -0.11816			 0.07602
	156.00			  10.40250			  -0.14059			 -0.00427
	156.25			  10.30311			  -0.03335			 -0.05314
	156.50			  10.23485			  -0.08066			 0.07234
	156.75			  10.22902			  0.02799			 0.05640
	157.00			  10.22394			  0.12419			 0.16034
	157.25			  10.04395			  0.07565			 0.17133
	157.50			  10.09789			  0.00661			 0.25462
	157.75			  10.18546			  0.08389			 0.12575
	158.00			  10.04774			  0.00626			 0.06317
	158.25			  10.10046			  -0.05893			 0.07427
	158.50			  10.07804			  -0.10221			 0.15782
	158.75			  10.07940			  0.05480			 0.14402
	159.00			  10.02213			  0.26386			 0.14317
	159.25			  10.03289			  0.34114			 0.10262
	159.50			  10.11114			  0.29154			 0.17967
	159.75			  10.21447			  0.51725			 0.22575
	160.00			  10.18902			  0.44803			 0.17882
	160.25			  10.14516			  0.35200			 0.12903
	160.50			  10.18038			  0.22303			 0.11273
	160.75			  10.32773			  0.31292			 0.07420
	161.00			  10.28174			  0.38565			 0.14681
	161.25			  10.16470			  0.31345			 0.15090
	161.50			  10.18357			  0.31275			 0.08430
	161.75			  10.20046			  0.47537			 0.04127
	162.00			  10.17122			  0.49902			 -0.03145
	162.25			  10.09395			  0.43261			 0.11257
	162.50			  10.01925			  0.39914			 0.00796
	162.75			  10.12016			  0.32098			 -0.06465
	163.00			  10.26425			  0.33623			 0.03763
	163.25			  10.22993			  0.14802			 0.11743
	163.50			  10.11220			  0.16292			 0.00436
	163.75			  10.09728			  0.18517			 -0.03464
	164.00			  10.15538			  0.13663			 0.08751
	164.25			  10.19129			  0.16047			 0.09578
	164.50			  10.14592			  0.02869			 0.04311
	164.75			  10.14213			  -0.07242			 0.07146