--------------TurbSim v2.00.* User Time Series Input File-----------------------
     Time series input from low-res turbsim run
--------------------------------------------------------------------------------
          3 nComp - Number of velocity components in the file
          1 nPoints - Number of time series points contained in this file (-)
          1 RefPtID - Index of the reference point (1-nPoints)
     Pointyi Pointzi ! nPoints listed in order of increasing height
       (m)     (m)
       -0.63780   94.00000
--------Time Series-------------------------------------------------------------
Elapsed Time         Point01u             Point01v           Point01w
         (s)            (m/s)                (m/s)              (m/s)
	0.00			  10.17023			  -0.36198			 0.60980
	0.25			  10.29856			  -0.39287			 0.50806
	0.50			  10.23434			  -0.46683			 0.37443
	0.75			  9.91567			  -0.32920			 0.51444
	1.00			  10.01300			  -0.36702			 0.17306
	1.25			  9.66799			  -0.47293			 0.00808
	1.50			  9.63046			  -0.32247			 -0.23189
	1.75			  9.60412			  -0.65238			 -0.24877
	2.00			  9.49129			  -0.48679			 -0.05805
	2.25			  9.88280			  -0.32667			 -0.01662
	2.50			  9.84585			  -0.32773			 -0.31183
	2.75			  10.05029			  -0.44267			 -0.36835
	3.00			  10.11219			  -0.56622			 -0.39565
	3.25			  10.08118			  -0.55656			 -0.40373
	3.50			  10.37036			  -0.72655			 -0.17659
	3.75			  10.42829			  -0.82490			 -0.26594
	4.00			  10.40101			  -0.88310			 -0.27697
	4.25			  10.28714			  -0.73916			 -0.00356
	4.50			  10.12559			  -0.73055			 0.06044
	4.75			  10.25100			  -0.98418			 0.07397
	5.00			  10.12198			  -0.44645			 0.14639
	5.25			  9.99586			  -0.45212			 0.10618
	5.50			  9.78128			  -0.58324			 0.06659
	5.75			  9.85751			  -0.33046			 -0.03435
	6.00			  9.80762			  -0.49877			 -0.04098
	6.25			  9.62125			  -0.52882			 -0.14338
	6.50			  9.66892			  -0.17412			 -0.08544
	6.75			  9.74480			  -0.18568			 -0.16316
	7.00			  9.83735			  -0.27582			 0.02492
	7.25			  10.05519			  -0.31974			 -0.08587
	7.50			  10.30707			  -0.26301			 -0.17555
	7.75			  10.35847			  -0.12516			 -0.26277
	8.00			  10.54904			  0.01269			 -0.09315
	8.25			  10.44076			  0.06753			 -0.02101
	8.50			  10.41570			  -0.41556			 0.11205
	8.75			  10.37246			  -0.22287			 0.46515
	9.00			  10.11288			  -0.31575			 0.24506
	9.25			  10.03491			  -0.38236			 0.22472
	9.50			  9.82021			  -0.36891			 0.35002
	9.75			  9.79888			  -0.44036			 0.26024
	10.00			  9.76182			  -0.04468			 0.23337
	10.25			  9.55167			  -0.32415			 0.18938
	10.50			  9.66158			  -0.38992			 0.12486
	10.75			  9.81846			  -0.21257			 0.02865
	11.00			  9.98456			  -0.09700			 0.17491
	11.25			  9.91520			  -0.18084			 0.32561
	11.50			  9.73839			  -0.28360			 0.10490
	11.75			  9.77709			  -0.16487			 0.14114
	12.00			  9.85390			  -0.02955			 -0.00332
	12.25			  10.02780			  0.04526			 -0.08241
	12.50			  9.69643			  0.02824			 0.16200
	12.75			  9.69946			  0.06207			 0.12671
	13.00			  9.88805			  0.26463			 0.17254
	13.25			  9.84504			  0.14927			 0.30362
	13.50			  9.83000			  0.19340			 0.11422
	13.75			  9.96696			  0.13309			 -0.09864
	14.00			  10.30986			  -0.06233			 0.13030
	14.25			  10.38131			  0.07720			 0.09119
	14.50			  10.24331			  -0.07557			 -0.14835
	14.75			  10.17105			  -0.09574			 -0.16448
	15.00			  10.15484			  -0.29452			 -0.16827
	15.25			  10.20881			  -0.34033			 0.08589
	15.50			  10.25450			  -0.29368			 0.12155
	15.75			  10.54158			  -0.22434			 0.22505
	16.00			  10.66723			  -0.14050			 0.46269
	16.25			  10.52783			  -0.20039			 0.51700
	16.50			  10.72073			  -0.06275			 0.45744
	16.75			  10.76770			  0.02214			 0.34207
	17.00			  10.74229			  0.01437			 0.43493
	17.25			  10.75220			  0.08287			 0.37358
	17.50			  10.80605			  -0.11991			 0.31994
	17.75			  10.90407			  -0.29957			 0.00746
	18.00			  10.95326			  -0.33466			 -0.01964
	18.25			  10.85057			  -0.22686			 0.06914
	18.50			  11.04417			  0.16944			 -0.14168
	18.75			  10.84882			  0.15368			 -0.24149
	19.00			  10.72294			  0.27661			 -0.11183
	19.25			  10.88635			  0.25077			 -0.00616
	19.50			  10.87202			  0.17197			 -0.03426
	19.75			  10.55510			  0.03034			 -0.22966
	20.00			  10.78483			  -0.06401			 -0.20838
	20.25			  10.95978			  0.16944			 -0.18846
	20.50			  10.93251			  0.12259			 -0.13501
	20.75			  10.97179			  0.00512			 -0.19073
	21.00			  10.97039			  0.15053			 0.26639
	21.25			  11.05210			  -0.02030			 0.35896
	21.50			  10.97808			  -0.14365			 0.42892
	21.75			  10.70557			  -0.28843			 0.44112
	22.00			  10.88705			  -0.39770			 0.54637
	22.25			  10.68867			  -0.35294			 0.34950
	22.50			  10.63179			  -0.32247			 0.07681
	22.75			  10.73856			  -0.39266			 -0.21330
	23.00			  11.07121			  -0.40568			 -0.29532
	23.25			  11.02494			  -0.37879			 -0.08639
	23.50			  11.09056			  -0.28591			 -0.09008
	23.75			  10.92120			  -0.02114			 -0.15772
	24.00			  10.78297			  -0.05897			 0.01300
	24.25			  10.60370			  -0.18778			 -0.08161
	24.50			  10.48633			  -0.46704			 -0.14121
	24.75			  10.50591			  -0.49751			 -0.11959
	25.00			  10.56757			  -0.35126			 -0.11628
	25.25			  10.38411			  -0.10667			 0.12075
	25.50			  10.42677			  -0.14869			 0.34576
	25.75			  10.48901			  -0.24493			 0.13541
	26.00			  10.48575			  -0.09658			 -0.01368
	26.25			  10.44740			  -0.06884			 0.11805
	26.50			  10.57153			  -0.29978			 -0.07168
	26.75			  10.26243			  -0.13188			 -0.02731
	27.00			  10.38971			  -0.35883			 -0.12971
	27.25			  10.28177			  -0.57064			 -0.30563
	27.50			  10.15426			  -0.41430			 0.05689
	27.75			  10.36570			  -0.54668			 0.16129
	28.00			  10.25065			  -0.40064			 0.02198
	28.25			  10.45486			  -0.26385			 0.11271
	28.50			  10.50312			  -0.29474			 0.03504
	28.75			  10.51943			  -0.27246			 -0.01472
	29.00			  10.39006			  -0.49310			 -0.27346
	29.25			  10.40999			  -0.27183			 -0.34778
	29.50			  10.62375			  -0.39055			 -0.07754
	29.75			  10.34052			  -0.65532			 -0.15975
	30.00			  10.33026			  -0.77951			 -0.38472
	30.25			  10.40637			  -0.80977			 -0.51097
	30.50			  10.45276			  -0.80556			 -0.82297
	30.75			  10.46978			  -0.78434			 -0.56078
	31.00			  10.70313			  -0.88920			 -0.60221
	31.25			  10.66326			  -1.16111			 -0.76971
	31.50			  10.64660			  -1.16615			 -0.63537
	31.75			  10.94941			  -1.12980			 -0.57388
	32.00			  11.13986			  -0.83078			 -0.29229
	32.25			  11.07914			  -0.85494			 0.02468
	32.50			  10.92936			  -0.87512			 -0.13525
	32.75			  11.24733			  -0.53765			 -0.15838
	33.00			  11.11982			  -0.34517			 -0.02452
	33.25			  11.21516			  -0.57106			 0.01588
	33.50			  11.36505			  -0.70743			 0.12643
	33.75			  11.50294			  -0.78182			 -0.03057
	34.00			  11.47963			  -0.42481			 -0.35620
	34.25			  11.42601			  -0.42628			 -0.36235
	34.50			  11.32088			  -0.35420			 -0.23525
	34.75			  11.25525			  -0.30251			 0.00642
	35.00			  11.16131			  -0.31554			 -0.09495
	35.25			  11.15875			  -0.62716			 0.05755
	35.50			  11.00955			  -0.80535			 -0.01014
	35.75			  11.23043			  -0.84381			 -0.24475
	36.00			  11.12238			  -1.01422			 -0.13672
	36.25			  11.31680			  -1.13547			 -0.25445
	36.50			  11.36983			  -1.15837			 -0.33202
	36.75			  11.26155			  -1.10311			 -0.39697
	37.00			  11.06165			  -1.25671			 -0.60382
	37.25			  11.12832			  -0.98060			 -0.60869
	37.50			  11.14045			  -1.01023			 -0.49422
	37.75			  11.13765			  -1.09029			 -0.39957
	38.00			  10.99650			  -1.36115			 -0.16164
	38.25			  10.94964			  -1.03482			 -0.05077
	38.50			  10.94999			  -1.07096			 0.18423
	38.75			  11.04534			  -0.69314			 0.07160
	39.00			  10.86316			  -0.85431			 0.13650
	39.25			  10.80593			  -0.87470			 0.33645
	39.50			  10.73565			  -0.63136			 0.24742
	39.75			  10.74019			  -0.46011			 0.17552
	40.00			  10.63074			  -0.51390			 0.15211
	40.25			  10.68553			  -0.60006			 0.20935
	40.50			  10.79952			  -0.65217			 0.04767
	40.75			  10.65977			  -0.48764			 -0.14197
	41.00			  10.70989			  -0.11654			 -0.32942
	41.25			  10.69473			  -0.16845			 -0.41778
	41.50			  10.86596			  -0.15563			 -0.52043
	41.75			  10.83180			  -0.33697			 -0.40634
	42.00			  10.56955			  -0.32878			 -0.14532
	42.25			  10.55603			  -0.36261			 -0.14452
	42.50			  10.37409			  -0.33445			 0.01579
	42.75			  10.37374			  -0.23548			 -0.26628
	43.00			  10.40975			  -0.23275			 -0.11013
	43.25			  10.22152			  -0.30377			 -0.10450
	43.50			  10.20485			  -0.24746			 -0.16406
	43.75			  10.30474			  -0.42565			 -0.24934
	44.00			  10.39215			  -0.81775			 -0.26869
	44.25			  10.37432			  -0.60867			 -0.09419
	44.50			  10.54123			  -0.57841			 0.19359
	44.75			  10.51197			  -0.33529			 0.15873
	45.00			  10.71548			  -0.51916			 -0.01978
	45.25			  10.66350			  -0.34916			 -0.24419
	45.50			  10.51186			  -0.06002			 -0.35998
	45.75			  10.47887			  -0.09910			 -0.59356
	46.00			  10.36943			  -0.20060			 -0.56314
	46.25			  10.12710			  -0.14386			 -0.66886
	46.50			  10.46197			  -0.18042			 -0.69010
	46.75			  10.59811			  -0.23653			 -0.63532
	47.00			  10.77003			  -0.22749			 -0.54190
	47.25			  10.55055			  -0.18547			 -0.43685
	47.50			  10.41418			  -0.10352			 -0.28562
	47.75			  10.51873			  -0.24136			 -0.09618
	48.00			  10.45370			  -0.18967			 -0.18265
	48.25			  10.42526			  -0.18463			 -0.17815
	48.50			  10.44484			  0.16356			 0.02894
	48.75			  10.71490			  -0.01295			 -0.17792
	49.00			  10.81479			  -0.09364			 0.10859
	49.25			  10.81502			  0.25056			 0.20059
	49.50			  10.74672			  0.26589			 0.01025
	49.75			  10.62550			  -0.03060			 0.04824
	50.00			  10.26872			  -0.20564			 0.17382
	50.25			  10.18538			  -0.24157			 0.12685
	50.50			  9.92173			  -0.26910			 0.34898
	50.75			  10.27595			  -0.20774			 0.23196
	51.00			  10.31103			  0.00890			 0.26876
	51.25			  10.18433			  -0.05519			 0.19719
	51.50			  9.96206			  -0.27540			 0.19161
	51.75			  10.01661			  -0.21846			 -0.00630
	52.00			  9.97546			  -0.28780			 0.06947
	52.25			  10.28888			  -0.37353			 0.35754
	52.50			  10.07617			  -0.35756			 0.18371
	52.75			  9.98362			  -0.07662			 0.51056
	53.00			  10.20881			  0.08959			 0.41355
	53.25			  10.26196			  0.06480			 0.32103
	53.50			  10.21615			  -0.08944			 0.26791
	53.75			  10.30555			  -0.08229			 0.25471
	54.00			  10.25975			  0.09926			 0.15239
	54.25			  10.09855			  -0.09763			 0.21701
	54.50			  10.20322			  -0.10982			 0.04625
	54.75			  10.16149			  0.21483			 -0.13842
	55.00			  10.37012			  0.31296			 -0.26202
	55.25			  10.61268			  0.32851			 -0.48732
	55.50			  10.76374			  0.26779			 -0.25899
	55.75			  10.64963			  0.33398			 -0.08558
	56.00			  10.73716			  0.68952			 -0.35232
	56.25			  10.61606			  0.87864			 -0.36249
	56.50			  10.79241			  0.86162			 -0.46546
	56.75			  10.94044			  0.99232			 -0.35776
	57.00			  10.83670			  0.84502			 -0.38444
	57.25			  10.80768			  0.94126			 -0.40894
	57.50			  10.65977			  0.92949			 -0.31500
	57.75			  10.13468			  0.75907			 -0.34541
	58.00			  10.23900			  0.63993			 -0.30757
	58.25			  10.51302			  0.68364			 -0.37195
	58.50			  10.30474			  0.76790			 -0.12248
	58.75			  10.69392			  0.91667			 0.05741
	59.00			  10.61594			  1.03855			 0.03811
	59.25			  10.67049			  1.05830			 -0.03719
	59.50			  10.58436			  0.89503			 0.21322
	59.75			  10.55055			  0.86162			 0.08215
	60.00			  10.63541			  0.68069			 -0.06477
	60.25			  10.40626			  0.63047			 0.03523
	60.50			  10.37782			  0.77861			 0.05528
	60.75			  10.26138			  0.54096			 -0.25483
	61.00			  9.99493			  0.79542			 -0.05909
	61.25			  10.04237			  0.85909			 0.22145
	61.50			  10.31266			  0.72818			 0.32017
	61.75			  9.96183			  0.53991			 0.19180
	62.00			  9.61472			  0.62963			 0.19019
	62.25			  9.66915			  0.36424			 -0.10370
	62.50			  9.64806			  -0.00433			 -0.06250
	62.75			  9.79387			  -0.09574			 -0.13440
	63.00			  9.85448			  0.04421			 -0.28822
	63.25			  9.73396			  0.13771			 -0.51839
	63.50			  9.76601			  0.01290			 -0.23269
	63.75			  10.18690			  0.10241			 -0.27290
	64.00			  10.17816			  0.20748			 0.03565
	64.25			  10.08340			  0.15936			 0.10334
	64.50			  10.14272			  0.18647			 0.09019
	64.75			  9.98456			  -0.07032			 0.10154
	65.00			  10.01078			  -0.25124			 0.10273
	65.25			  9.74655			  -0.58472			 -0.14575
	65.50			  10.06708			  -0.82847			 -0.06274
	65.75			  10.13130			  -0.72887			 -0.04117
	66.00			  10.32746			  -0.73076			 -0.13411
	66.25			  10.10076			  -0.92051			 0.13920
	66.50			  9.99819			  -0.68054			 0.27036
	66.75			  10.00402			  -0.80136			 0.06096
	67.00			  9.97663			  -0.54185			 -0.08265
	67.25			  9.99073			  -0.70743			 -0.13497
	67.50			  10.06731			  -0.56938			 -0.13497
	67.75			  9.90343			  -0.43910			 0.00046
	68.00			  10.19564			  -0.33361			 -0.02641
	68.25			  10.14179			  -0.28675			 0.09218
	68.50			  10.10752			  -0.25208			 0.10216
	68.75			  9.91206			  -0.56601			 -0.24565
	69.00			  10.12804			  -0.40821			 -0.42280
	69.25			  10.35602			  -0.41766			 -0.01799
	69.50			  10.38481			  -0.36345			 -0.27838
	69.75			  10.37071			  -0.27729			 -0.02986
	70.00			  10.41581			  -0.48091			 -0.25913
	70.25			  10.32152			  -0.18316			 -0.13776
	70.50			  10.08328			  -0.18274			 -0.15138
	70.75			  10.01708			  -0.20585			 0.00694
	71.00			  9.95740			  -0.24809			 -0.04840
	71.25			  10.00134			  -0.11507			 0.01952
	71.50			  9.90157			  -0.28528			 -0.19414
	71.75			  10.01136			  -0.08271			 -0.47525
	72.00			  9.94679			  0.21294			 -0.35577
	72.25			  10.25858			  0.05093			 -0.67236
	72.50			  10.26044			  0.20265			 -0.61834
	72.75			  10.48144			  -0.01967			 -0.44115
	73.00			  10.58179			  -0.28885			 -0.24102
	73.25			  10.44041			  -0.21152			 -0.27796
	73.50			  10.29320			  -0.47040			 -0.08038
	73.75			  10.01509			  -0.79022			 0.03660
	74.00			  10.12932			  -0.46158			 0.10282
	74.25			  9.92977			  -0.60300			 0.15017
	74.50			  9.86462			  -0.58661			 0.02515
	74.75			  9.65971			  -0.46158			 0.23593
	75.00			  9.89667			  -0.27940			 0.11436
	75.25			  9.85588			  -0.54605			 0.12363
	75.50			  9.58803			  -0.68852			 -0.13634
	75.75			  9.65692			  -0.64229			 0.02179
	76.00			  9.73711			  -0.67150			 0.12695
	76.25			  9.76275			  -0.68264			 0.26374
	76.50			  9.82417			  -0.67255			 0.06016
	76.75			  9.79142			  -0.52777			 0.15490
	77.00			  9.62859			  -0.52315			 0.14454
	77.25			  10.06067			  -0.53113			 0.08314
	77.50			  10.18573			  -0.40926			 0.27349
	77.75			  10.26534			  -0.50445			 0.08726
	78.00			  10.13736			  -0.30797			 0.12789
	78.25			  10.15030			  -0.39098			 0.00798
	78.50			  10.46873			  -0.27078			 0.03381
	78.75			  10.58377			  -0.39413			 0.16692
	79.00			  10.75977			  -0.34201			 0.03523
	79.25			  10.46908			  -0.25502			 0.22070
	79.50			  10.52293			  -0.73706			 0.32434
	79.75			  10.45999			  -0.74841			 0.41525
	80.00			  10.72469			  -0.63410			 0.34723
	80.25			  10.68786			  -0.80472			 0.24378
	80.50			  10.61210			  -0.81103			 0.49344
	80.75			  10.20811			  -0.84675			 0.33810
	81.00			  10.26721			  -0.99216			 0.15798
	81.25			  10.20310			  -0.91420			 -0.36093
	81.50			  10.20881			  -0.78182			 -0.48907
	81.75			  10.29693			  -0.52903			 -0.38510
	82.00			  10.09459			  -0.54962			 -0.11254
	82.25			  10.21639			  -0.81145			 -0.04121
	82.50			  10.39274			  -0.64965			 0.10287
	82.75			  10.47538			  -0.76375			 -0.02154
	83.00			  10.55265			  -0.56181			 -0.23378
	83.25			  10.37665			  -0.37269			 -0.14230
	83.50			  10.14890			  -0.05035			 -0.02215
	83.75			  10.17955			  0.08266			 0.03438
	84.00			  10.47118			  -0.17874			 0.13064
	84.25			  10.53867			  -0.35967			 0.18470
	84.50			  10.53260			  -0.32436			 -0.03487
	84.75			  10.60056			  -0.43888			 0.13035
	85.00			  10.61314			  -0.26889			 0.30532
	85.25			  10.53144			  -0.42733			 0.34534
	85.50			  10.55254			  -0.52777			 0.38578
	85.75			  10.68401			  -0.65406			 0.54590
	86.00			  10.53354			  -0.59060			 0.79480
	86.25			  10.60044			  -0.64208			 0.79007
	86.50			  10.40125			  -0.37837			 0.43606
	86.75			  10.52946			  -0.25565			 0.33001
	87.00			  10.45416			  -0.26616			 0.30319
	87.25			  10.18585			  -0.17349			 0.45144
	87.50			  10.24949			  -0.23254			 0.52537
	87.75			  10.13958			  -0.10183			 0.26142
	88.00			  10.37572			  -0.09721			 0.36312
	88.25			  10.52678			  -0.31491			 -0.03965
	88.50			  10.37630			  -0.32163			 0.15116
	88.75			  10.18340			  -0.33382			 -0.08785
	89.00			  10.27513			  -0.40001			 -0.07853
	89.25			  10.23818			  -0.16256			 0.24908
	89.50			  10.35952			  -0.18126			 0.07056
	89.75			  10.38633			  -0.32016			 -0.19915
	90.00			  10.30241			  -0.47251			 -0.35407
	90.25			  10.44111			  -0.41094			 -0.27938
	90.50			  10.35008			  -0.34538			 -0.24419
	90.75			  10.56780			  -0.17328			 -0.23378
	91.00			  10.68856			  -0.16571			 -0.20015
	91.25			  10.95652			  -0.06989			 0.08537
	91.50			  10.96934			  0.16041			 -0.18993
	91.75			  10.90885			  0.00659			 -0.28084
	92.00			  10.92377			  -0.35084			 -0.16704
	92.25			  11.00198			  -0.29768			 -0.29338
	92.50			  10.83973			  -0.58261			 -0.21623
	92.75			  10.72143			  -0.36555			 -0.15828
	93.00			  10.80500			  -0.07557			 -0.27280
	93.25			  10.74112			  -0.28150			 -0.24641
	93.50			  10.80593			  0.05345			 -0.12248
	93.75			  10.89521			  -0.14827			 0.04559
	94.00			  10.87050			  -0.10478			 0.24222
	94.25			  10.69089			  -0.28045			 0.12590
	94.50			  10.79544			  -0.28318			 0.07912
	94.75			  10.76432			  -0.24178			 0.32320
	95.00			  10.83961			  -0.65196			 0.12799
	95.25			  10.95780			  -0.57862			 -0.06236
	95.50			  11.07110			  -0.34979			 -0.13577
	95.75			  10.90978			  -0.35105			 0.10613
	96.00			  10.99650			  -0.20501			 -0.03738
	96.25			  10.96235			  -0.08607			 -0.33907
	96.50			  10.94195			  -0.19114			 -0.43136
	96.75			  11.08030			  -0.21194			 -0.53500
	97.00			  11.07564			  -0.18820			 -0.56740
	97.25			  11.07727			  0.10052			 -0.56087
	97.50			  11.07786			  0.25013			 -0.15611
	97.75			  11.22180			  0.07552			 -0.06155
	98.00			  11.35608			  0.22723			 -0.02645
	98.25			  11.15758			  0.48716			 -0.30156
	98.50			  11.06585			  0.54516			 -0.02187
	98.75			  10.98951			  0.62753			 -0.05195
	99.00			  10.95396			  0.70213			 -0.05782
	99.25			  11.02202			  0.52520			 -0.11661
	99.50			  11.08974			  0.31717			 0.29666
	99.75			  10.81805			  0.17007			 0.14090
	100.00			  10.92167			  0.37180			 0.11649
	100.25			  10.67853			  0.26232			 0.36279
	100.50			  10.52538			  0.33776			 0.36549
	100.75			  10.49554			  0.36571			 0.23092
	101.00			  10.51850			  0.19970			 0.12439
	101.25			  10.58575			  0.07510			 -0.17853
	101.50			  10.47806			  0.12805			 -0.26098
	101.75			  10.32059			  0.01311			 -0.07324
	102.00			  10.34576			  0.05324			 0.12770
	102.25			  10.18107			  0.14654			 0.01082
	102.50			  10.26697			  -0.13167			 -0.32346
	102.75			  10.05717			  0.16209			 -0.25369
	103.00			  9.98992			  0.37243			 -0.15043
	103.25			  10.06265			  0.48947			 -0.42407
	103.50			  10.32583			  0.74562			 -0.32129
	103.75			  10.28341			  0.48170			 -0.42791
	104.00			  10.13643			  0.52099			 -0.20620
	104.25			  10.23270			  0.61219			 -0.17536
	104.50			  10.15426			  0.42685			 -0.27938
	104.75			  10.07302			  0.31338			 -0.30449
	105.00			  10.12023			  0.27493			 -0.54488
	105.25			  10.05356			  0.19382			 -0.72510
	105.50			  10.19855			  0.02319			 -0.63878
	105.75			  10.26895			  0.12153			 -0.35411
	106.00			  10.16837			  0.04232			 -0.51234
	106.25			  10.21965			  -0.05414			 -0.48604
	106.50			  10.39355			  0.22030			 -0.24262
	106.75			  10.32746			  0.41215			 -0.21935
	107.00			  10.24786			  0.46783			 -0.30426
	107.25			  10.35124			  0.60252			 -0.20975
	107.50			  10.19214			  0.65317			 -0.15814
	107.75			  10.16767			  0.39050			 -0.07026
	108.00			  10.41278			  0.31843			 -0.25506
	108.25			  10.38749			  0.41173			 -0.54247
	108.50			  10.55300			  0.33377			 -0.36154
	108.75			  10.61314			  0.09695			 -0.44035
	109.00			  10.61524			  0.30078			 -0.67099
	109.25			  10.32385			  0.00302			 -0.69209
	109.50			  10.37992			  0.05829			 -0.48296
	109.75			  10.44880			  -0.06590			 -0.56844
	110.00			  10.35276			  0.30624			 -0.40728
	110.25			  10.29739			  0.31780			 -0.64781
	110.50			  10.22664			  0.48443			 -0.63116
	110.75			  10.18422			  0.48947			 -0.77647
	111.00			  10.18527			  0.09128			 -0.72534
	111.25			  10.09027			  0.03286			 -0.49843
	111.50			  10.15718			  0.04736			 -0.55004
	111.75			  10.06451			  0.08980			 -0.48524
	112.00			  10.19319			  0.06606			 -0.53514
	112.25			  10.05962			  -0.06884			 -0.79563
	112.50			  10.26930			  0.08098			 -0.57927
	112.75			  10.24145			  -0.08734			 -0.32994
	113.00			  10.19016			  0.03370			 -0.01680
	113.25			  10.20753			  -0.16529			 -0.19759
	113.50			  10.21429			  -0.04300			 -0.41282
	113.75			  10.12186			  0.27556			 -0.47781
	114.00			  10.21825			  0.14885			 -0.57104
	114.25			  10.20834			  -0.05582			 -0.40170
	114.50			  10.60860			  -0.24977			 -0.33453
	114.75			  10.71700			  -0.18295			 -0.41078
	115.00			  10.66653			  -0.06653			 -0.12782
	115.25			  10.91211			  -0.03039			 0.04899
	115.50			  11.06457			  -0.15815			 -0.02891
	115.75			  10.84999			  -0.06023			 -0.23515
	116.00			  10.77644			  0.04715			 -0.31485
	116.25			  10.70709			  0.03034			 -0.15772
	116.50			  10.90092			  -0.14365			 0.05405
	116.75			  10.97703			  -0.04552			 0.07231
	117.00			  10.79019			  0.06522			 -0.17886
	117.25			  10.88216			  0.08854			 -0.00503
	117.50			  10.84393			  0.32011			 0.09147
	117.75			  10.74299			  0.47813			 0.10552
	118.00			  10.89638			  -0.24809			 -0.05938
	118.25			  10.79264			  -0.35168			 0.09653
	118.50			  10.57655			  -0.14911			 0.08333
	118.75			  10.35532			  0.08686			 0.48767
	119.00			  10.30310			  0.26884			 0.32500
	119.25			  10.27163			  0.31338			 0.02250
	119.50			  10.35847			  0.70087			 -0.00772
	119.75			  10.40812			  0.96752			 0.13073
	120.00			  10.29553			  0.87002			 0.17775
	120.25			  10.33807			  0.72818			 0.15116
	120.50			  10.46908			  1.01522			 0.11616
	120.75			  10.71979			  0.82337			 0.16521
	121.00			  10.47934			  0.66052			 0.21933
	121.25			  10.46861			  0.79437			 0.10145
	121.50			  10.44332			  0.73470			 0.19818
	121.75			  10.47817			  0.78597			 0.09554
	122.00			  10.40474			  0.56869			 0.03456
	122.25			  10.25811			  0.80572			 -0.03946
	122.50			  10.41943			  0.59622			 0.10311
	122.75			  10.29786			  0.49494			 -0.01751
	123.00			  10.45778			  0.71789			 0.15864
	123.25			  10.60767			  0.71515			 0.21800
	123.50			  10.71047			  0.51658			 0.23749
	123.75			  10.81281			  0.27577			 0.21105
	124.00			  10.73821			  0.44976			 0.16124
	124.25			  10.77807			  0.41362			 0.32263
	124.50			  10.61233			  0.55714			 0.03641
	124.75			  10.95955			  0.70192			 0.03991
	125.00			  11.08718			  0.80425			 0.24946
	125.25			  10.83507			  0.71600			 0.38914
	125.50			  10.87097			  0.90406			 0.31573
	125.75			  10.99673			  0.77063			 0.56666
	126.00			  11.07156			  0.53633			 0.48999
	126.25			  10.96736			  0.80656			 0.36232
	126.50			  11.23124			  0.43106			 0.44656
	126.75			  11.23474			  0.22219			 0.23773
	127.00			  10.97843			  0.42160			 0.15391
	127.25			  11.12879			  0.39660			 0.24525
	127.50			  10.77224			  0.28964			 0.44008
	127.75			  10.76362			  0.19382			 0.43616
	128.00			  10.62142			  0.22135			 0.15429
	128.25			  10.56547			  0.19928			 0.01858
	128.50			  10.91736			  0.23248			 -0.06330
	128.75			  10.88064			  0.20328			 -0.19499
	129.00			  10.82947			  0.33019			 -0.30596
	129.25			  10.75453			  0.41887			 -0.53854
	129.50			  10.74625			  0.59706			 -0.68561
	129.75			  10.69672			  0.59727			 -0.52005
	130.00			  10.51419			  0.59832			 -0.38671
	130.25			  10.76199			  0.56953			 -0.42341
	130.50			  11.03438			  0.37916			 -0.42015
	130.75			  10.93228			  0.36192			 -0.38633
	131.00			  10.99347			  0.22933			 -0.21680
	131.25			  10.97540			  -0.02934			 -0.36376
	131.50			  11.09534			  0.02445			 0.00803
	131.75			  11.09965			  -0.22392			 -0.07489
	132.00			  10.97365			  -0.10120			 -0.22134
	132.25			  11.02144			  -0.22791			 -0.23260
	132.50			  10.88472			  -0.19240			 -0.33562
	132.75			  10.85780			  -0.14869			 -0.30109
	133.00			  10.86397			  -0.39329			 -0.40558
	133.25			  11.13229			  0.10893			 -0.35530
	133.50			  11.04394			  0.09821			 -0.33278
	133.75			  10.91561			  -0.01421			 -0.42899
	134.00			  10.71991			  -0.11886			 -0.59791
	134.25			  10.49601			  -0.14638			 -0.54801
	134.50			  10.57025			  -0.28696			 -0.34219
	134.75			  10.37141			  -0.45485			 -0.23397
	135.00			  10.39472			  -0.33235			 -0.26377
	135.25			  10.27222			  -0.33508			 -0.42587
	135.50			  10.35695			  -0.43888			 -0.37337
	135.75			  10.38376			  -0.18295			 -0.45184
	136.00			  10.55323			  -0.18379			 -0.40823
	136.25			  10.49134			  -0.18379			 -0.30653
	136.50			  10.34833			  -0.24788			 -0.16538
	136.75			  10.01603			  -0.40547			 -0.11046
	137.00			  10.10566			  -0.38908			 -0.17039
	137.25			  10.07127			  -0.66898			 -0.27006
	137.50			  9.73652			  -0.52966			 -0.11354
	137.75			  9.97034			  -0.69714			 -0.13146
	138.00			  9.64643			  -1.11088			 -0.20223
	138.25			  9.44665			  -1.18863			 -0.31722
	138.50			  9.63372			  -1.21805			 -0.39905
	138.75			  9.83735			  -0.92555			 -0.28368
	139.00			  9.93584			  -0.79632			 -0.31760
	139.25			  9.78513			  -0.65217			 -0.49001
	139.50			  9.87744			  -0.55131			 -0.65363
	139.75			  10.15135			  -0.68747			 -0.84624
	140.00			  10.35066			  -0.52609			 -0.89298
	140.25			  10.31476			  -0.31575			 -0.70893
	140.50			  10.23539			  -0.14281			 -0.57071
	140.75			  10.29658			  -0.30797			 -0.63835
	141.00			  10.31033			  -0.35420			 -0.96630
	141.25			  10.10915			  -0.04216			 -0.55113
	141.50			  9.75622			  0.17218			 -0.43420
	141.75			  9.78618			  0.08518			 -0.33978
	142.00			  9.70109			  0.01563			 -0.24163
	142.25			  9.83303			  -0.22098			 -0.38921
	142.50			  9.96241			  -0.30314			 -0.62705
	142.75			  9.62498			  -0.20900			 -0.47298
	143.00			  9.33755			  -0.20312			 -0.26680
	143.25			  9.30270			  -0.16319			 -0.62123
	143.50			  9.35305			  -0.06086			 -0.45491
	143.75			  9.55714			  0.05555			 -0.43855
	144.00			  9.55236			  -0.05035			 -0.48055
	144.25			  9.69118			  0.10010			 -0.53481
	144.50			  9.59840			  0.27220			 -0.50416
	144.75			  9.84282			  0.28985			 -0.50449
	145.00			  9.89900			  0.27241			 -0.37218
	145.25			  9.77324			  0.22198			 -0.22087
	145.50			  9.75739			  0.01185			 -0.34399
	145.75			  9.91462			  0.11649			 -0.47138
	146.00			  10.06918			  -0.18715			 -0.46608
	146.25			  9.96882			  -0.35714			 -0.28543
	146.50			  9.70820			  -0.24598			 -0.25540
	146.75			  9.63780			  -0.34727			 -0.17858
	147.00			  9.75669			  -0.60867			 -0.28907
	147.25			  9.81800			  -0.57946			 -0.22039
	147.50			  9.92861			  -0.68663			 -0.07626
	147.75			  9.87453			  -0.50634			 0.13688
	148.00			  9.82487			  -0.23359			 0.08357
	148.25			  9.83117			  -0.51411			 0.11626
	148.50			  9.59724			  -0.45086			 0.11119
	148.75			  9.69305			  -0.38971			 0.10230
	149.00			  9.65260			  -0.42544			 0.24302
	149.25			  9.94714			  -0.64670			 0.27510
	149.50			  9.91684			  -0.75261			 0.26204
	149.75			  9.86462			  -0.80598			 0.17813
	150.00			  10.04237			  -0.65931			 0.11266
	150.25			  9.94120			  -0.38866			 -0.08941
	150.50			  10.05297			  -0.17685			 -0.22522
	150.75			  10.26010			  -0.03606			 -0.18350
	151.00			  10.06906			  0.04694			 -0.38037
	151.25			  9.76287			  0.15347			 -0.35071
	151.50			  9.94714			  0.02109			 -0.16302
	151.75			  10.25718			  -0.02198			 -0.18118
	152.00			  10.17408			  0.14843			 -0.27649
	152.25			  10.22851			  0.05913			 -0.22205
	152.50			  10.15333			  0.05955			 -0.18009
	152.75			  10.23865			  0.02466			 -0.09395
	153.00			  10.18130			  0.22744			 -0.33675
	153.25			  10.03724			  0.01689			 -0.22460
	153.50			  9.82977			  -0.00854			 -0.35123
	153.75			  9.93059			  0.43043			 -0.09149
	154.00			  10.13596			  0.53738			 0.11767
	154.25			  10.09738			  0.62459			 -0.01662
	154.50			  9.86753			  0.37810			 -0.36480
	154.75			  9.92115			  0.19655			 -0.37006
	155.00			  9.91416			  0.07825			 -0.10729
	155.25			  9.91089			  0.27388			 -0.12678
	155.50			  9.69538			  0.20475			 -0.26277
	155.75			  9.68862			  0.09653			 -0.29527
	156.00			  9.54945			  0.19361			 -0.47152
	156.25			  9.68559			  -0.14323			 -0.26831
	156.50			  9.66682			  -0.34412			 -0.16415
	156.75			  9.56029			  -0.17685			 -0.26159
	157.00			  9.71111			  -0.20186			 -0.31788
	157.25			  9.87453			  -0.05666			 -0.00876
	157.50			  9.83047			  -0.06191			 0.09350
	157.75			  9.53267			  -0.17349			 -0.01756
	158.00			  9.41704			  -0.32920			 -0.22342
	158.25			  9.37007			  -0.47671			 -0.28463
	158.50			  9.46565			  -0.41493			 -0.29234
	158.75			  9.31168			  -0.21657			 -0.35998
	159.00			  9.49001			  -0.28759			 -0.47350
	159.25			  9.51145			  -0.38068			 -0.70907
	159.50			  9.63092			  -0.08650			 -0.67047
	159.75			  9.52031			  0.04337			 -0.90570
	160.00			  9.61146			  0.01857			 -0.71853
	160.25			  9.65062			  0.12490			 -0.61560
	160.50			  9.51437			  0.10619			 -0.86748
	160.75			  9.65132			  0.01500			 -0.68556
	161.00			  9.80424			  0.21420			 -0.56801
	161.25			  9.73501			  0.39344			 -0.19896
	161.50			  9.39257			  0.29006			 -0.32072
	161.75			  9.40958			  0.45018			 -0.34588
	162.00			  9.63733			  0.05765			 -0.27209
	162.25			  9.77813			  -0.03795			 -0.39423
	162.50			  9.84725			  0.21084			 -0.37190
	162.75			  9.90436			  0.26884			 -0.32715
	163.00			  10.07943			  0.24362			 -0.13719
	163.25			  10.15077			  0.19424			 -0.08142
	163.50			  9.96346			  0.18752			 -0.34910
	163.75			  10.01836			  0.19697			 -0.54370
	164.00			  9.86334			  0.19613			 -0.55888
	164.25			  9.71589			  0.17680			 -0.35799
	164.50			  9.61775			  0.30309			 -0.53873