--------------TurbSim v2.00.* User Time Series Input File-----------------------
     Time series input from low-res turbsim run
--------------------------------------------------------------------------------
          3 nComp - Number of velocity components in the file
          1 nPoints - Number of time series points contained in this file (-)
          1 RefPtID - Index of the reference point (1-nPoints)
     Pointyi Pointzi ! nPoints listed in order of increasing height
       (m)     (m)
       -3.86487   94.00000
--------Time Series-------------------------------------------------------------
Elapsed Time         Point01u             Point01v           Point01w
         (s)            (m/s)                (m/s)              (m/s)
	0.00			  9.44695			  -0.43103			 0.21751
	0.25			  9.43911			  -0.59944			 0.14874
	0.50			  9.43248			  -0.46440			 0.05069
	0.75			  9.56806			  -0.38326			 0.04473
	1.00			  9.76305			  -0.19847			 0.17121
	1.25			  9.78517			  -0.19156			 0.11581
	1.50			  9.74677			  -0.25355			 0.16222
	1.75			  9.75351			  -0.20242			 0.01434
	2.00			  9.91231			  -0.10765			 -0.05328
	2.25			  9.75381			  -0.21466			 -0.13569
	2.50			  9.76908			  -0.27902			 -0.15709
	2.75			  9.78376			  -0.22907			 0.01085
	3.00			  9.71179			  -0.14378			 0.04362
	3.25			  9.51097			  -0.08554			 -0.17634
	3.50			  9.50022			  0.07398			 -0.04671
	3.75			  9.70144			  0.15374			 -0.00202
	4.00			  9.74315			  0.22540			 -0.19578
	4.25			  9.84487			  0.29884			 -0.01359
	4.50			  9.84326			  0.15334			 -0.12439
	4.75			  9.96478			  0.21040			 0.06356
	5.00			  10.07152			  0.14663			 0.06233
	5.25			  10.27626			  0.14031			 0.08319
	5.50			  9.89724			  -0.01822			 0.02698
	5.75			  9.89683			  0.12175			 -0.06911
	6.00			  10.12027			  -0.06738			 0.05814
	6.25			  10.06197			  -0.05494			 -0.03583
	6.50			  10.07142			  0.04061			 -0.01432
	6.75			  10.11564			  0.01732			 -0.04994
	7.00			  10.08821			  -0.24052			 -0.11060
	7.25			  9.99473			  -0.12128			 -0.25814
	7.50			  10.05665			  -0.33904			 -0.28353
	7.75			  10.06690			  -0.55640			 -0.23578
	8.00			  10.03262			  -0.37141			 -0.32084
	8.25			  10.08559			  -0.34812			 -0.06069
	8.50			  10.28310			  -0.48849			 -0.20830
	8.75			  10.26812			  -0.41643			 -0.39530
	9.00			  10.36029			  -0.41899			 -0.18994
	9.25			  10.16630			  -0.45966			 -0.17653
	9.50			  10.00659			  -0.49658			 -0.10918
	9.75			  9.84738			  -0.42255			 -0.26255
	10.00			  10.03112			  -0.36885			 -0.23508
	10.25			  9.98367			  -0.48375			 -0.15294
	10.50			  9.99423			  -0.32798			 -0.25322
	10.75			  10.17183			  -0.13292			 -0.01002
	11.00			  9.96578			  -0.27803			 0.06083
	11.25			  9.96639			  -0.20716			 0.18650
	11.50			  9.79602			  -0.34200			 0.08492
	11.75			  9.84075			  -0.07587			 0.02233
	12.00			  9.92960			  -0.19432			 -0.07410
	12.25			  9.93302			  -0.23598			 0.04796
	12.50			  10.04760			  -0.18682			 0.00474
	12.75			  10.04016			  -0.26085			 0.00093
	13.00			  10.09454			  -0.26717			 0.05737
	13.25			  10.17273			  -0.17458			 0.15838
	13.50			  9.94518			  -0.05711			 -0.00571
	13.75			  10.04338			  0.16874			 -0.23954
	14.00			  10.05775			  0.18552			 0.04047
	14.25			  10.15414			  -0.07567			 -0.13296
	14.50			  10.16741			  -0.04507			 -0.13500
	14.75			  10.09886			  -0.05316			 0.02498
	15.00			  10.09172			  0.04575			 0.15711
	15.25			  10.18811			  0.18987			 0.32105
	15.50			  10.51909			  0.14347			 0.02452
	15.75			  10.57478			  0.12728			 0.07274
	16.00			  10.30752			  0.11583			 -0.13381
	16.25			  10.00016			  0.05384			 0.13022
	16.50			  10.06539			  0.18967			 0.20948
	16.75			  10.18138			  0.22678			 0.26189
	17.00			  10.15706			  0.13636			 0.25532
	17.25			  10.13595			  0.14229			 0.26573
	17.50			  10.24611			  0.29272			 0.37123
	17.75			  10.20530			  0.30121			 0.16138
	18.00			  9.96217			  0.19559			 0.22884
	18.25			  9.97071			  0.19974			 0.25958
	18.50			  10.06559			  0.35748			 0.38491
	18.75			  10.17344			  0.41631			 0.40765
	19.00			  9.96729			  0.38551			 0.36189
	19.25			  9.94618			  0.35195			 0.48611
	19.50			  10.14881			  0.20467			 0.34461
	19.75			  10.00468			  0.01495			 0.26788
	20.00			  9.94598			  0.12708			 0.25167
	20.25			  10.03403			  0.11129			 0.44888
	20.50			  10.02890			  0.15038			 0.37711
	20.75			  10.01865			  0.16993			 0.31886
	21.00			  9.99162			  0.10359			 0.41322
	21.25			  9.95302			  0.19618			 0.29255
	21.50			  9.72727			  0.18394			 0.30311
	21.75			  9.73340			  0.04555			 0.45168
	22.00			  9.71491			  -0.13667			 0.17506
	22.25			  9.56796			  -0.08357			 0.12991
	22.50			  9.46504			  -0.28810			 0.22550
	22.75			  9.77290			  -0.05376			 0.27722
	23.00			  9.75773			  -0.19037			 0.22104
	23.25			  9.98840			  -0.21545			 -0.03372
	23.50			  10.11374			  -0.13055			 0.12910
	23.75			  10.13997			  -0.26855			 0.23949
	24.00			  10.17585			  -0.20893			 0.15177
	24.25			  10.06227			  -0.18682			 0.02963
	24.50			  10.25937			  -0.24763			 -0.07668
	24.75			  10.25535			  -0.31357			 0.02783
	25.00			  10.12359			  -0.28178			 0.07443
	25.25			  10.30953			  -0.22552			 0.16595
	25.50			  10.34380			  -0.19531			 -0.01636
	25.75			  10.31767			  0.05463			 -0.06634
	26.00			  10.41577			  0.15176			 -0.05351
	26.25			  10.20852			  0.02817			 -0.28511
	26.50			  10.20198			  -0.24861			 -0.26394
	26.75			  10.19243			  -0.41149			 -0.13680
	27.00			  10.19867			  -0.34140			 0.14720
	27.25			  10.09353			  -0.29718			 0.09091
	27.50			  9.92930			  -0.28988			 0.13817
	27.75			  9.89462			  -0.33588			 0.11082
	28.00			  9.72004			  -0.42353			 -0.05858
	28.25			  9.66526			  -0.57713			 0.03974
	28.50			  9.71943			  -0.45315			 0.02279
	28.75			  9.81854			  -0.40221			 0.22788
	29.00			  10.04227			  -0.32739			 0.13287
	29.25			  9.99845			  -0.64386			 -0.12589
	29.50			  10.03684			  -0.58957			 -0.17834
	29.75			  9.88859			  -0.86833			 0.03398
	30.00			  9.75401			  -0.70940			 0.18086
	30.25			  9.78265			  -0.45117			 0.26381
	30.50			  9.82326			  -0.66400			 0.39521
	30.75			  9.90749			  -0.84128			 0.50543
	31.00			  9.95513			  -0.82529			 0.39021
	31.25			  9.90739			  -0.56864			 0.28567
	31.50			  9.87965			  -0.65156			 0.13348
	31.75			  9.95372			  -1.05430			 0.03997
	32.00			  9.88618			  -0.99152			 0.09902
	32.25			  9.93503			  -0.84069			 -0.03753
	32.50			  9.93091			  -0.74928			 -0.25768
	32.75			  9.96448			  -0.82450			 -0.13638
	33.00			  10.03494			  -0.78008			 -0.11160
	33.25			  9.89482			  -0.61089			 -0.09946
	33.50			  9.81381			  -0.77120			 -0.06911
	33.75			  9.90337			  -0.59312			 -0.18302
	34.00			  9.93061			  -0.45848			 -0.27519
	34.25			  10.00297			  -0.56548			 -0.10042
	34.50			  10.02197			  -0.56943			 -0.02581
	34.75			  10.00619			  -0.74158			 -0.11122
	35.00			  10.08298			  -0.60418			 0.00220
	35.25			  10.22430			  -0.52817			 0.00320
	35.50			  10.36903			  -0.66281			 -0.14437
	35.75			  10.37546			  -0.69637			 -0.26359
	36.00			  10.49869			  -0.86241			 -0.25887
	36.25			  10.32471			  -0.81009			 -0.33352
	36.50			  10.30259			  -0.83161			 -0.13811
	36.75			  10.12730			  -0.92716			 -0.25933
	37.00			  10.12027			  -0.89321			 -0.19586
	37.25			  10.32430			  -0.78679			 -0.14783
	37.50			  10.20500			  -0.85234			 -0.28050
	37.75			  10.29375			  -0.78383			 -0.32468
	38.00			  10.29707			  -0.79607			 -0.11975
	38.25			  10.47959			  -0.67367			 0.06525
	38.50			  10.63951			  -0.66558			 -0.05009
	38.75			  10.50492			  -0.66696			 -0.06807
	39.00			  10.51929			  -0.88827			 -0.03610
	39.25			  10.60865			  -0.78502			 0.01596
	39.50			  10.60784			  -0.58424			 0.01384
	39.75			  10.60593			  -0.77988			 0.10075
	40.00			  10.56020			  -0.69006			 0.10252
	40.25			  10.38722			  -0.61207			 -0.11045
	40.50			  10.34129			  -0.63024			 -0.16320
	40.75			  10.42391			  -0.78936			 -0.31104
	41.00			  10.41165			  -0.83576			 -0.25817
	41.25			  10.20741			  -0.87406			 -0.27873
	41.50			  9.99031			  -0.63833			 -0.52585
	41.75			  10.01845			  -0.65373			 -0.54406
	42.00			  10.37285			  -0.94671			 -0.55536
	42.25			  10.35144			  -0.74889			 -0.47214
	42.50			  10.43336			  -0.57693			 -0.35849
	42.75			  10.55407			  -0.54080			 -0.27231
	43.00			  10.61398			  -0.35917			 -0.30954
	43.25			  10.57086			  -0.31436			 -0.25349
	43.50			  10.42813			  -0.54831			 -0.13073
	43.75			  10.45597			  -0.62056			 -0.24242
	44.00			  10.58252			  -0.60319			 -0.26463
	44.25			  10.49326			  -0.45591			 -0.18141
	44.50			  10.22158			  -0.23282			 -0.01359
	44.75			  10.19625			  -0.12286			 0.06298
	45.00			  10.14077			  -0.48533			 0.11996
	45.25			  10.01071			  -0.49421			 -0.13876
	45.50			  10.16299			  -0.57831			 -0.24215
	45.75			  10.27154			  -0.52461			 -0.19125
	46.00			  10.15535			  -0.32522			 -0.25495
	46.25			  10.24751			  -0.26125			 -0.29444
	46.50			  10.22802			  -0.08317			 -0.37313
	46.75			  10.36521			  -0.38010			 -0.01113
	47.00			  10.30923			  -0.36964			 -0.22329
	47.25			  10.41446			  -0.19827			 -0.23870
	47.50			  10.29797			  -0.38504			 -0.19497
	47.75			  10.44100			  -0.37181			 -0.27569
	48.00			  10.45215			  -0.11417			 -0.47452
	48.25			  10.28460			  -0.22236			 -0.43145
	48.50			  10.19726			  -0.19788			 -0.34566
	48.75			  10.18892			  0.07556			 -0.32503
	49.00			  10.09997			  0.05502			 -0.23128
	49.25			  10.32923			  0.10260			 -0.16643
	49.50			  10.36511			  0.18532			 -0.12801
	49.75			  10.38260			  -0.02592			 -0.12428
	50.00			  10.20319			  0.05660			 -0.03364
	50.25			  10.10248			  0.05325			 0.06122
	50.50			  10.18007			  0.20092			 -0.06722
	50.75			  10.22430			  0.13913			 -0.25952
	51.00			  10.32873			  0.16104			 -0.15794
	51.25			  10.34390			  0.08365			 -0.10253
	51.50			  10.25053			  0.09273			 -0.38558
	51.75			  10.37094			  0.25186			 -0.38131
	52.00			  10.35345			  -0.02000			 -0.34577
	52.25			  10.36210			  -0.05731			 -0.15966
	52.50			  10.31546			  0.16558			 -0.20239
	52.75			  10.60885			  0.04318			 -0.22387
	53.00			  10.45648			  -0.03540			 -0.29003
	53.25			  10.23455			  0.06351			 -0.34166
	53.50			  10.23616			  0.03686			 -0.37966
	53.75			  10.19816			  0.23350			 -0.16205
	54.00			  10.19535			  0.09806			 -0.20646
	54.25			  10.36220			  0.10695			 -0.35265
	54.50			  10.24892			  0.16203			 -0.53557
	54.75			  10.18872			  0.30279			 -0.49331
	55.00			  10.23656			  0.27811			 -0.34620
	55.25			  10.23354			  0.37308			 -0.29521
	55.50			  10.33958			  0.01357			 -0.12881
	55.75			  10.18540			  0.05739			 -0.05228
	56.00			  10.27616			  -0.01684			 -0.33098
	56.25			  10.18751			  0.01969			 -0.34996
	56.50			  10.33918			  0.11465			 -0.08763
	56.75			  10.33667			  0.04614			 -0.04406
	57.00			  10.15263			  -0.22038			 -0.07898
	57.25			  10.10328			  -0.28968			 0.04420
	57.50			  9.97925			  -0.42926			 -0.09300
	57.75			  10.01312			  -0.49362			 -0.08478
	58.00			  10.11404			  -0.46124			 -0.11125
	58.25			  9.89121			  -0.32225			 -0.13757
	58.50			  9.98850			  -0.11318			 0.07947
	58.75			  9.87532			  0.07911			 0.15727
	59.00			  9.80095			  -0.34752			 0.06602
	59.25			  9.80567			  -0.31910			 -0.08221
	59.50			  9.85794			  0.03370			 -0.32191
	59.75			  9.89422			  -0.07113			 -0.27009
	60.00			  9.77984			  -0.28158			 -0.20193
	60.25			  9.65410			  -0.42116			 -0.03422
	60.50			  9.54615			  -0.22986			 -0.14264
	60.75			  9.53731			  -0.12049			 -0.19451
	61.00			  9.36342			  -0.05988			 -0.03806
	61.25			  9.47047			  -0.10963			 -0.18514
	61.50			  9.48384			  -0.08594			 -0.19735
	61.75			  9.45831			  -0.16313			 -0.12997
	62.00			  9.55902			  -0.33331			 -0.15213
	62.25			  9.39398			  -0.44189			 -0.07960
	62.50			  9.65350			  -0.25552			 0.04585
	62.75			  9.52062			  -0.31929			 -0.01847
	63.00			  9.46956			  -0.49895			 0.14532
	63.25			  9.31015			  -0.53034			 0.14271
	63.50			  9.46946			  -0.63418			 0.29516
	63.75			  9.52474			  -0.57891			 0.39935
	64.00			  9.44594			  -0.43933			 0.29493
	64.25			  9.40212			  -0.27606			 0.44661
	64.50			  9.48364			  -0.34397			 0.20445
	64.75			  9.41850			  -0.16293			 0.22481
	65.00			  9.27065			  -0.09166			 -0.01409
	65.25			  9.37096			  0.00666			 0.12173
	65.50			  9.29970			  0.03508			 0.20506
	65.75			  9.26633			  0.12590			 -0.00252
	66.00			  9.37478			  0.13340			 -0.03426
	66.25			  9.31046			  -0.03658			 -0.09350
	66.50			  9.50092			  -0.05316			 0.35206
	66.75			  9.40041			  -0.06067			 0.25389
	67.00			  9.39127			  -0.04922			 0.08945
	67.25			  9.30835			  0.04002			 0.04293
	67.50			  9.31297			  0.05522			 0.02525
	67.75			  9.15456			  -0.26915			 0.23015
	68.00			  9.22733			  -0.24763			 0.19699
	68.25			  9.30824			  -0.07804			 0.17924
	68.50			  9.20683			  -0.09364			 -0.12074
	68.75			  9.47308			  -0.32048			 -0.16109
	69.00			  9.30071			  -0.14674			 0.07443
	69.25			  9.27849			  -0.03638			 0.15492
	69.50			  9.38403			  0.09076			 0.11766
	69.75			  9.49318			  -0.06146			 -0.12635
	70.00			  9.69883			  -0.39431			 -0.02308
	70.25			  10.06067			  -0.10232			 -0.05820
	70.50			  10.29666			  -0.04803			 0.13137
	70.75			  10.31787			  0.28838			 0.26327
	71.00			  10.38833			  0.31878			 0.09602
	71.25			  10.26963			  0.12511			 0.23184
	71.50			  9.91483			  0.00804			 0.47305
	71.75			  9.83994			  0.09175			 0.39613
	72.00			  9.79431			  0.23784			 0.31702
	72.25			  9.76969			  0.37999			 0.25877
	72.50			  9.94699			  0.24080			 0.31802
	72.75			  9.75602			  0.26232			 0.28686
	73.00			  9.84175			  0.17210			 0.49491
	73.25			  9.87934			  0.31582			 0.41764
	73.50			  9.97845			  0.25186			 0.54170
	73.75			  9.85311			  0.17032			 0.44869
	74.00			  9.83190			  0.03035			 0.48741
	74.25			  9.91794			  0.06845			 0.62258
	74.50			  9.89301			  0.16302			 0.52599
	74.75			  9.89563			  0.24514			 0.56337
	75.00			  10.02569			  0.08602			 0.63457
	75.25			  10.12690			  0.01021			 0.45522
	75.50			  10.10630			  -0.32186			 0.38921
	75.75			  10.12248			  -0.28178			 0.64886
	76.00			  10.12630			  -0.28158			 0.75113
	76.25			  9.82829			  -0.52777			 0.54628
	76.50			  9.93111			  -0.69262			 0.47281
	76.75			  9.82577			  -0.35601			 0.33815
	77.00			  9.88457			  -0.35167			 0.37177
	77.25			  10.05906			  -0.42491			 0.21928
	77.50			  9.96910			  -0.49441			 0.12204
	77.75			  9.92146			  -0.61385			 0.43851
	78.00			  9.98810			  -0.60694			 0.47781
	78.25			  9.89141			  -0.59450			 0.41749
	78.50			  10.04569			  -0.59411			 0.15665
	78.75			  10.04539			  -0.44683			 0.61881
	79.00			  10.18269			  -0.63734			 0.50455
	79.25			  10.15505			  -0.52146			 0.33035
	79.50			  10.19545			  -0.78798			 0.30672
	79.75			  10.30551			  -0.85194			 0.11462
	80.00			  10.61317			  -0.75817			 -0.16850
	80.25			  10.47185			  -0.91986			 -0.41820
	80.50			  10.61910			  -1.00436			 -0.17373
	80.75			  10.54734			  -1.06911			 -0.12512
	81.00			  10.27224			  -1.05786			 -0.12140
	81.25			  10.19334			  -0.94908			 -0.18883
	81.50			  10.30531			  -0.84089			 0.01934
	81.75			  10.33034			  -0.99745			 0.14393
	82.00			  10.21997			  -0.73487			 -0.14088
	82.25			  10.34250			  -0.68788			 -0.26594
	82.50			  10.41115			  -0.67920			 -0.42957
	82.75			  10.47859			  -0.59825			 -0.28711
	83.00			  10.60061			  -0.71908			 -0.14168
	83.25			  10.58382			  -0.92262			 -0.14802
	83.50			  10.39325			  -0.89597			 -0.16969
	83.75			  10.24370			  -0.73290			 -0.23950
	84.00			  10.07675			  -0.54100			 -0.15590
	84.25			  10.01654			  -0.66340			 0.05092
	84.50			  10.24058			  -0.77752			 0.05876
	84.75			  10.32380			  -0.67485			 -0.15348
	85.00			  10.18540			  -0.71375			 -0.08724
	85.25			  10.26128			  -0.75521			 -0.03795
	85.50			  10.28651			  -0.63675			 0.07278
	85.75			  10.30852			  -0.45788			 0.31852
	86.00			  10.40029			  -0.45552			 0.26058
	86.25			  10.71921			  -0.25987			 0.05956
	86.50			  10.62141			  -0.06461			 0.20391
	86.75			  10.55668			  -0.23460			 -0.05843
	87.00			  10.57679			  -0.35029			 -0.18064
	87.25			  10.45617			  -0.05948			 -0.38842
	87.50			  10.51316			  -0.18465			 -0.46530
	87.75			  10.59820			  -0.15918			 -0.07760
	88.00			  10.42612			  0.03429			 -0.10438
	88.25			  10.49678			  -0.05968			 -0.15156
	88.50			  10.48442			  -0.26698			 0.02133
	88.75			  10.40582			  -0.39194			 -0.08359
	89.00			  10.64956			  -0.69223			 0.06998
	89.25			  10.62513			  -0.42274			 0.15976
	89.50			  10.37959			  -0.48394			 0.26146
	89.75			  10.40310			  -0.32107			 0.27902
	90.00			  10.29526			  -0.25750			 0.23687
	90.25			  10.20007			  -0.28474			 -0.04118
	90.50			  10.30802			  -0.07054			 0.01807
	90.75			  10.40602			  -0.07903			 0.29458
	91.00			  10.28802			  -0.01230			 0.15519
	91.25			  10.53759			  -0.11140			 0.11961
	91.50			  10.53477			  -0.33252			 0.02260
	91.75			  10.62714			  -0.55048			 0.03574
	92.00			  10.50090			  -0.43893			 0.15277
	92.25			  10.62212			  -0.27546			 0.38080
	92.50			  10.64021			  -0.09304			 0.07090
	92.75			  10.81349			  -0.09778			 0.15369
	93.00			  10.74625			  -0.02710			 0.45395
	93.25			  10.75992			  -0.10489			 0.49010
	93.50			  10.62292			  -0.15622			 0.38840
	93.75			  10.52231			  -0.21071			 0.09702
	94.00			  10.43919			  -0.12088			 0.26596
	94.25			  10.48120			  0.14308			 0.45134
	94.50			  10.40441			  0.12511			 0.21132
	94.75			  10.23998			  0.11386			 0.19319
	95.00			  10.19042			  0.13281			 0.16710
	95.25			  10.18037			  -0.00045			 0.16203
	95.50			  10.41537			  0.37347			 0.33900
	95.75			  10.29626			  0.47593			 0.25224
	96.00			  10.20058			  0.21059			 0.45426
	96.25			  10.01513			  -0.12878			 0.38906
	96.50			  10.01272			  0.01692			 0.24302
	96.75			  10.06197			  -0.13766			 0.16668
	97.00			  9.95935			  0.04199			 0.09464
	97.25			  9.78577			  0.05423			 -0.26148
	97.50			  9.72014			  0.18394			 -0.14499
	97.75			  9.68898			  0.18453			 -0.26970
	98.00			  9.97091			  -0.00065			 -0.33913
	98.25			  9.86055			  0.16617			 -0.14318
	98.50			  9.91915			  0.35471			 -0.15694
	98.75			  10.00418			  0.39993			 -0.24803
	99.00			  9.95221			  0.64651			 -0.23551
	99.25			  9.83994			  0.50002			 -0.08317
	99.50			  10.04569			  0.46902			 -0.00007
	99.75			  10.15223			  0.62874			 -0.19221
	100.00			  10.18449			  0.58175			 -0.05643
	100.25			  10.21565			  0.26429			 0.01876
	100.50			  10.07021			  0.23843			 0.11189
	100.75			  10.04509			  0.31997			 -0.17111
	101.00			  10.14610			  0.40980			 -0.15820
	101.25			  10.08087			  0.36399			 -0.01878
	101.50			  10.21947			  0.22205			 0.21424
	101.75			  10.28661			  0.19520			 0.21997
	102.00			  10.08851			  0.14110			 -0.01224
	102.25			  10.20550			  0.04654			 -0.16013
	102.50			  10.07413			  -0.05435			 -0.30044
	102.75			  10.00619			  0.10458			 0.03129
	103.00			  10.09816			  0.12412			 0.36989
	103.25			  10.05805			  0.06312			 0.15462
	103.50			  10.15183			  0.13873			 0.02548
	103.75			  9.95111			  0.26923			 -0.01563
	104.00			  10.15314			  0.01495			 -0.15598
	104.25			  10.10539			  0.23389			 -0.21053
	104.50			  10.12218			  0.25344			 -0.19363
	104.75			  10.05855			  0.09846			 0.01888
	105.00			  10.05665			  0.11820			 0.41703
	105.25			  10.26902			  0.08859			 0.42033
	105.50			  10.00951			  0.26627			 0.62554
	105.75			  9.93020			  0.08247			 0.44189
	106.00			  10.02589			  0.02225			 0.21816
	106.25			  10.04267			  -0.08120			 0.20214
	106.50			  10.10167			  -0.11101			 0.12411
	106.75			  10.28410			  0.04199			 0.16399
	107.00			  10.34421			  0.08740			 0.21478
	107.25			  10.33194			  0.24969			 0.38268
	107.50			  10.09444			  0.28759			 0.34464
	107.75			  10.10660			  0.22698			 0.44861
	108.00			  10.26742			  0.23705			 0.50155
	108.25			  10.35546			  0.46468			 0.43432
	108.50			  10.36903			  0.65776			 0.24821
	108.75			  10.24872			  0.61235			 0.37772
	109.00			  10.22038			  0.62578			 0.24548
	109.25			  10.19213			  0.78234			 0.12730
	109.50			  10.14288			  0.57662			 0.12184
	109.75			  10.23013			  0.49114			 0.18489
	110.00			  10.29867			  0.37860			 0.21951
	110.25			  10.08067			  0.28858			 0.14401
	110.50			  10.27676			  0.36261			 -0.08371
	110.75			  10.42733			  0.25462			 -0.22333
	111.00			  10.39908			  0.14051			 -0.22813
	111.25			  10.32662			  0.11998			 -0.15674
	111.50			  10.34039			  0.25798			 -0.22794
	111.75			  10.53306			  0.24791			 0.02395
	112.00			  10.62352			  0.16203			 0.07585
	112.25			  10.61277			  0.13261			 0.01665
	112.50			  10.77670			  0.29983			 -0.03864
	112.75			  10.93199			  0.08898			 0.16211
	113.00			  10.72986			  0.03666			 0.20245
	113.25			  10.53186			  -0.13470			 0.30757
	113.50			  10.53719			  -0.12977			 0.01926
	113.75			  10.45798			  0.20704			 0.09906
	114.00			  10.37657			  0.03054			 0.07489
	114.25			  10.36210			  -0.03895			 0.04788
	114.50			  10.21646			  0.11109			 -0.09131
	114.75			  10.09042			  -0.13115			 -0.12205
	115.00			  9.98629			  -0.05593			 -0.29168
	115.25			  9.89744			  -0.16787			 -0.26255
	115.50			  9.77632			  -0.17734			 -0.36333
	115.75			  9.95774			  -0.12009			 -0.61360
	116.00			  10.00358			  -0.30942			 -0.45650
	116.25			  9.91261			  -0.14970			 -0.24623
	116.50			  9.71551			  0.07990			 -0.17177
	116.75			  9.65511			  0.03410			 -0.21756
	117.00			  9.68556			  -0.06619			 -0.31865
	117.25			  9.55500			  -0.30468			 -0.41750
	117.50			  9.58606			  -0.21584			 0.04473
	117.75			  9.61380			  -0.42413			 -0.11029
	118.00			  9.70848			  -0.48059			 -0.17207
	118.25			  9.59701			  -0.26184			 -0.18026
	118.50			  9.64495			  -0.09660			 -0.13062
	118.75			  9.48444			  -0.23144			 0.03778
	119.00			  9.56897			  -0.16195			 0.09376
	119.25			  9.71913			  -0.15977			 0.06383
	119.50			  9.72979			  -0.36490			 -0.13949
	119.75			  9.70868			  -0.39056			 0.11547
	120.00			  9.50545			  -0.00262			 0.11043
	120.25			  9.55470			  0.10083			 0.10371
	120.50			  9.22814			  0.06944			 -0.05378
	120.75			  9.21356			  0.00113			 0.06098
	121.00			  9.54294			  0.00231			 -0.11909
	121.25			  9.50012			  -0.05316			 -0.00606
	121.50			  9.47519			  -0.09798			 0.00823
	121.75			  9.36363			  -0.16293			 0.11620
	122.00			  9.65913			  -0.15701			 0.01269
	122.25			  9.73049			  -0.18820			 -0.14871
	122.50			  9.68425			  -0.05198			 -0.09128
	122.75			  9.67792			  -0.18169			 -0.19686
	123.00			  9.93664			  0.09964			 -0.11237
	123.25			  9.93412			  0.26390			 -0.14891
	123.50			  9.91231			  0.01396			 -0.23808
	123.75			  10.07614			  0.06766			 -0.27900
	124.00			  9.90307			  -0.00065			 -0.27988
	124.25			  10.01433			  -0.15642			 -0.32798
	124.50			  9.93251			  -0.02316			 -0.05750
	124.75			  9.64083			  0.07516			 0.17636
	125.00			  9.62827			  0.15926			 0.13621
	125.25			  9.62787			  0.17466			 0.04527
	125.50			  9.84557			  0.14485			 -0.07103
	125.75			  9.73883			  0.05423			 -0.02869
	126.00			  9.72878			  0.01001			 -0.19029
	126.25			  9.60988			  -0.12029			 -0.28795
	126.50			  9.69611			  -0.31574			 -0.42000
	126.75			  9.58686			  -0.21999			 -0.36594
	127.00			  9.70174			  -0.28652			 -0.37497
	127.25			  9.63772			  -0.18110			 -0.40375
	127.50			  9.52304			  -0.16984			 -0.24780
	127.75			  9.91874			  0.06509			 -0.19071
	128.00			  9.96860			  0.02107			 -0.38204
	128.25			  9.90327			  0.28305			 -0.27516
	128.50			  9.94025			  0.34721			 -0.42442
	128.75			  9.88256			  0.30931			 -0.11725
	129.00			  9.78899			  0.13873			 -0.20100
	129.25			  9.58927			  0.01692			 -0.12532
	129.50			  9.46544			  -0.15523			 -0.28080
	129.75			  9.37428			  0.01060			 -0.15763
	130.00			  9.27668			  -0.02947			 -0.05985
	130.25			  9.15165			  -0.09541			 -0.16685
	130.50			  9.42966			  0.26291			 -0.03134
	130.75			  9.45479			  0.21316			 -0.03660
	131.00			  9.49107			  -0.03421			 -0.00771
	131.25			  9.21949			  0.12531			 -0.23827
	131.50			  9.29920			  0.15117			 -0.15071
	131.75			  9.38463			  0.20823			 0.00009
	132.00			  9.40936			  0.38334			 0.17306
	132.25			  9.45710			  0.19835			 0.08773
	132.50			  9.51630			  0.11563			 0.12653
	132.75			  9.48565			  0.12610			 0.16733
	133.00			  9.36473			  0.24455			 0.10851
	133.25			  9.48675			  0.36419			 -0.16819
	133.50			  9.55580			  0.39558			 0.04116
	133.75			  9.52384			  0.33872			 0.11128
	134.00			  9.46544			  0.29470			 -0.02957
	134.25			  9.58495			  0.44612			 -0.09969
	134.50			  9.43991			  0.39914			 0.02725
	134.75			  9.37478			  0.43605			 0.07708
	135.00			  9.55289			  0.13084			 -0.25222
	135.25			  9.57510			  -0.08613			 -0.16189
	135.50			  9.60354			  0.05759			 -0.03680
	135.75			  9.41891			  0.07674			 -0.03388
	136.00			  9.36795			  -0.07212			 0.04158
	136.25			  9.16582			  0.17229			 0.09948
	136.50			  9.33257			  0.28660			 0.21663
	136.75			  9.55962			  0.11623			 0.12300
	137.00			  9.56746			  0.18394			 0.10744
	137.25			  9.83412			  0.12412			 0.17225
	137.50			  9.72576			  -0.07883			 0.20368
	137.75			  9.69129			  -0.11989			 0.22927
	138.00			  9.74295			  -0.17754			 0.16741
	138.25			  9.63631			  0.02660			 0.11374
	138.50			  9.84296			  -0.16333			 0.11643
	138.75			  9.87975			  -0.17991			 0.29185
	139.00			  9.93945			  -0.22966			 0.18166
	139.25			  9.96810			  -0.28060			 -0.14188
	139.50			  9.93935			  -0.50112			 -0.20512
	139.75			  9.90055			  -0.38188			 -0.15029
	140.00			  10.01966			  -0.14536			 -0.29387
	140.25			  9.88296			  -0.15109			 -0.27101
	140.50			  9.90367			  0.07417			 -0.31258
	140.75			  10.00830			  0.08839			 -0.23336
	141.00			  9.85643			  0.15591			 -0.19336
	141.25			  9.72084			  -0.02335			 -0.03764
	141.50			  9.68546			  -0.16076			 0.14735
	141.75			  9.69903			  -0.21170			 0.18405
	142.00			  9.83914			  -0.33449			 -0.00836
	142.25			  9.71029			  -0.18228			 0.05622
	142.50			  9.82748			  -0.17004			 0.08903
	142.75			  9.76868			  -0.24013			 0.11466
	143.00			  9.79783			  -0.12917			 0.08454
	143.25			  9.79421			  -0.14201			 0.01181
	143.50			  9.64556			  -0.08080			 0.03463
	143.75			  9.83613			  0.00823			 0.25121
	144.00			  9.87673			  -0.10351			 0.35671
	144.25			  9.87472			  -0.09186			 0.40166
	144.50			  9.92186			  -0.02651			 0.22008
	144.75			  9.73793			  0.00132			 0.12565
	145.00			  9.71833			  0.08405			 0.19765
	145.25			  9.88819			  -0.12759			 -0.06454
	145.50			  9.84326			  -0.26085			 0.18816
	145.75			  10.12610			  -0.26382			 0.37377
	146.00			  10.33928			  -0.20656			 0.33938
	146.25			  10.36984			  -0.27922			 0.31283
	146.50			  10.36240			  -0.22966			 0.31675
	146.75			  10.19093			  -0.21229			 0.25735
	147.00			  10.26279			  -0.18860			 0.24840
	147.25			  10.24068			  -0.36016			 0.16745
	147.50			  10.43477			  -0.31357			 0.05687
	147.75			  10.36943			  -0.04349			 0.17436
	148.00			  10.40471			  -0.12838			 0.22669
	148.25			  10.30591			  -0.34831			 0.27852
	148.50			  10.21786			  -0.19018			 0.33850
	148.75			  10.17575			  -0.52481			 0.14766
	149.00			  9.86487			  -0.50231			 0.04865
	149.25			  9.50163			  -0.52915			 0.26504
	149.50			  9.63862			  -0.38898			 0.49149
	149.75			  9.56877			  -0.32008			 0.63395
	150.00			  9.38815			  -0.28474			 0.53556
	150.25			  9.59158			  -0.41031			 0.54128
	150.50			  9.59711			  -0.35582			 0.55753
	150.75			  9.49067			  -0.42294			 0.54720
	151.00			  9.33669			  -0.36648			 0.61147
	151.25			  9.11999			  -0.46460			 0.48530
	151.50			  9.12672			  -0.57476			 0.38572
	151.75			  9.23065			  -0.56134			 0.33930
	152.00			  9.24784			  -0.34338			 0.47366
	152.25			  9.02933			  -0.35108			 0.27084
	152.50			  9.04410			  -0.14141			 0.12672
	152.75			  8.98812			  -0.12305			 0.04704
	153.00			  9.03837			  -0.02493			 -0.09166
	153.25			  9.20834			  -0.01467			 -0.10561
	153.50			  9.26834			  0.10379			 -0.19055
	153.75			  9.22472			  0.07714			 -0.27769
	154.00			  9.16612			  -0.03678			 -0.20654
	154.25			  9.26673			  -0.25849			 -0.13830
	154.50			  9.29980			  -0.22927			 -0.01808
	154.75			  9.35197			  -0.09443			 0.09084
	155.00			  9.32654			  0.08385			 0.01027
	155.25			  9.41489			  0.07003			 -0.21587
	155.50			  9.57198			  0.01988			 -0.24465
	155.75			  9.54012			  -0.07172			 -0.32587
	156.00			  9.48313			  0.05364			 -0.50679
	156.25			  9.85784			  0.05700			 -0.46092
	156.50			  10.00056			  0.29134			 -0.26743
	156.75			  9.90367			  0.12807			 -0.41051
	157.00			  9.95965			  -0.03717			 -0.47433
	157.25			  9.87482			  0.05759			 -0.00671
	157.50			  9.82457			  0.02798			 -0.10077
	157.75			  9.88940			  -0.07014			 0.02483
	158.00			  9.86769			  -0.22492			 -0.03384
	158.25			  9.81753			  -0.02019			 -0.20381
	158.50			  9.72828			  -0.06698			 -0.31146
	158.75			  9.69632			  -0.23144			 -0.06308
	159.00			  9.52484			  -0.13569			 -0.20266
	159.25			  9.68526			  -0.13766			 -0.31934
	159.50			  9.76808			  -0.01190			 -0.47944
	159.75			  9.57621			  -0.04191			 -0.39879
	160.00			  9.46675			  0.16756			 -0.50426
	160.25			  9.71833			  -0.29106			 -0.49127
	160.50			  9.79864			  -0.42669			 -0.41405
	160.75			  10.00177			  -0.30192			 -0.44036
	161.00			  9.82075			  -0.30567			 -0.59581
	161.25			  9.90719			  -0.47289			 -0.38066
	161.50			  9.86256			  -0.48513			 -0.33263
	161.75			  9.78758			  -0.40043			 -0.41205
	162.00			  9.64435			  -0.47486			 -0.38393
	162.25			  9.80426			  -0.60931			 -0.28042
	162.50			  9.84457			  -0.73981			 -0.14637
	162.75			  9.66807			  -0.49362			 0.06913
	163.00			  9.44343			  -0.27487			 -0.16124
	163.25			  9.43489			  -0.15543			 -0.14530
	163.50			  9.47921			  -0.05928			 -0.44486
	163.75			  9.42182			  -0.24190			 -0.25706
	164.00			  9.40554			  -0.14694			 -0.31980
	164.25			  9.42433			  -0.17537			 -0.52512
	164.50			  9.66254			  -0.44328			 -0.52885
	164.75			  9.77783			  -0.53231			 -0.51924
	165.00			  9.78868			  -0.57042			 -0.56385
	165.25			  9.77944			  -0.39017			 -0.35169
	165.50			  9.83210			  -0.52461			 -0.45120
	165.75			  10.01915			  -0.66143			 -0.48439
	166.00			  9.83864			  -0.63261			 -0.54241