--------------TurbSim v2.00.* User Time Series Input File-----------------------
     Time series input from low-res turbsim run
--------------------------------------------------------------------------------
          3 nComp - Number of velocity components in the file
          1 nPoints - Number of time series points contained in this file (-)
          1 RefPtID - Index of the reference point (1-nPoints)
     Pointyi Pointzi ! nPoints listed in order of increasing height
       (m)     (m)
       -3.86487   94.00000
--------Time Series-------------------------------------------------------------
Elapsed Time         Point01u             Point01v           Point01w
         (s)            (m/s)                (m/s)              (m/s)
	0.00			  9.97758			  -0.16654			 -0.12650
	0.25			  9.98955			  -0.12542			 -0.16685
	0.50			  10.13788			  -0.12661			 -0.03059
	0.75			  10.04280			  -0.14843			 0.08083
	1.00			  9.92851			  -0.18210			 0.10190
	1.25			  9.91876			  -0.17229			 0.04846
	1.50			  9.94132			  -0.18904			 0.15741
	1.75			  9.96178			  -0.13625			 0.18785
	2.00			  9.93630			  0.01940			 0.19832
	2.25			  9.95036			  -0.07044			 0.10342
	2.50			  9.98231			  -0.14116			 0.15409
	2.75			  10.02651			  -0.33742			 0.16593
	3.00			  10.03911			  -0.31187			 0.14100
	3.25			  9.86552			  -0.37278			 0.19646
	3.50			  9.79751			  -0.35163			 0.17768
	3.75			  9.87164			  -0.33996			 0.16217
	4.00			  9.76584			  -0.31780			 0.07270
	4.25			  9.79021			  -0.20782			 0.13609
	4.50			  9.80420			  -0.16062			 0.07026
	4.75			  9.87986			  -0.43522			 0.09986
	5.00			  9.77336			  -0.38666			 0.10915
	5.25			  9.73306			  -0.29766			 0.12198
	5.50			  9.83099			  -0.25300			 0.11560
	5.75			  9.67209			  -0.14776			 0.09673
	6.00			  9.64634			  -0.22136			 0.10822
	6.25			  9.62810			  -0.15960			 0.05996
	6.50			  9.59852			  -0.31137			 0.10535
	6.75			  9.68817			  -0.33725			 0.24618
	7.00			  9.80406			  -0.28937			 0.13159
	7.25			  9.73104			  -0.29699			 0.10724
	7.50			  9.75359			  -0.27871			 0.15239
	7.75			  9.67571			  -0.23895			 0.01529
	8.00			  9.77629			  -0.17348			 -0.11809
	8.25			  9.74378			  -0.23422			 -0.02285
	8.50			  9.69019			  -0.25283			 -0.00493
	8.75			  9.75847			  -0.29699			 -0.06805
	9.00			  9.75116			  -0.15774			 -0.11022
	9.25			  9.74768			  -0.16146			 -0.06380
	9.50			  9.67313			  -0.21087			 -0.05449
	9.75			  9.68065			  -0.13930			 -0.09716
	10.00			  9.66137			  -0.18210			 -0.02121
	10.25			  9.65775			  -0.28125			 -0.08184
	10.50			  9.51819			  -0.21104			 -0.09591
	10.75			  9.58759			  -0.08110			 -0.08115
	11.00			  9.58703			  -0.04929			 -0.15737
	11.25			  9.61954			  -0.06198			 -0.24118
	11.50			  9.67278			  -0.06333			 -0.24888
	11.75			  9.66652			  -0.02932			 -0.15623
	12.00			  9.66471			  0.02533			 -0.16466
	12.25			  9.63074			  0.05510			 -0.13678
	12.50			  9.67418			  0.01991			 -0.05331
	12.75			  9.76118			  0.10772			 -0.07568
	13.00			  9.78895			  0.12041			 -0.10312
	13.25			  9.77204			  0.00638			 -0.18487
	13.50			  9.85313			  -0.01308			 -0.06691
	13.75			  9.81492			  0.09808			 -0.10372
	14.00			  9.91083			  0.05477			 -0.14727
	14.25			  9.91361			  0.08607			 -0.14725
	14.50			  9.79981			  0.07050			 -0.15081
	14.75			  9.83517			  0.03040			 0.04329
	15.00			  9.85334			  0.01111			 0.00571
	15.25			  9.83886			  -0.01663			 0.11284
	15.50			  9.86983			  -0.07856			 0.07521
	15.75			  9.85160			  -0.11493			 0.17333
	16.00			  9.99317			  -0.01274			 0.14244
	16.25			  9.86684			  0.01297			 0.02566
	16.50			  9.88438			  0.09656			 0.00348
	16.75			  9.99763			  0.10282			 -0.02962
	17.00			  10.07391			  0.05392			 -0.18515
	17.25			  10.14519			  0.15865			 -0.13991
	17.50			  10.23463			  0.07659			 -0.18493
	17.75			  10.21716			  -0.12982			 -0.09422
	18.00			  10.21924			  -0.06384			 -0.09136
	18.25			  10.22286			  -0.07314			 -0.11153
	18.50			  10.16140			  -0.00056			 -0.11809
	18.75			  10.15576			  -0.16992			 -0.03007
	19.00			  10.04677			  -0.13050			 -0.04367
	19.25			  10.06834			  -0.14437			 -0.13675
	19.50			  10.11595			  -0.26281			 -0.12135
	19.75			  9.98865			  -0.21087			 -0.13231
	20.00			  9.93456			  -0.14353			 -0.12300
	20.25			  9.91180			  -0.09700			 -0.07811
	20.50			  9.86635			  -0.05876			 -0.05048
	20.75			  9.76800			  -0.12035			 0.04623
	21.00			  9.79153			  -0.03660			 0.01279
	21.25			  9.79891			  -0.11290			 -0.08765
	21.50			  9.78575			  -0.05064			 0.00461
	21.75			  9.92726			  -0.08025			 -0.03057
	22.00			  9.91236			  -0.18769			 -0.14576
	22.25			  9.85904			  -0.16552			 -0.01405
	22.50			  9.93784			  -0.08076			 0.04749
	22.75			  10.00041			  -0.13879			 0.05354
	23.00			  9.97702			  -0.28599			 -0.02735
	23.25			  10.03744			  -0.37329			 -0.09402
	23.50			  9.97292			  -0.24741			 -0.10153
	23.75			  9.92183			  -0.18921			 -0.07903
	24.00			  9.95962			  -0.16705			 -0.05764
	24.25			  9.91723			  -0.22559			 -0.09520
	24.50			  9.89754			  -0.14217			 -0.12511
	24.75			  9.85243			  -0.13998			 0.00393
	25.00			  9.96881			  -0.09565			 0.07126
	25.25			  10.02728			  -0.03220			 0.00727
	25.50			  10.03612			  -0.01088			 -0.03259
	25.75			  9.98962			  0.02956			 0.03741
	26.00			  9.96143			  -0.01190			 0.02593
	26.25			  9.99589			  -0.07348			 -0.00629
	26.50			  10.01343			  -0.05064			 -0.04756
	26.75			  10.08700			  -0.07467			 -0.02682
	27.00			  10.11143			  -0.04658			 0.07422
	27.25			  10.05463			  -0.07179			 0.10286
	27.50			  10.08811			  0.00113			 0.13416
	27.75			  10.05254			  -0.10986			 0.03192
	28.00			  10.12152			  -0.11713			 -0.06519
	28.25			  10.04377			  -0.26772			 0.01476
	28.50			  10.14491			  -0.19124			 0.05391
	28.75			  10.19231			  -0.25232			 -0.00339
	29.00			  10.16774			  -0.19598			 -0.06036
	29.25			  10.24451			  -0.15859			 -0.06549
	29.50			  10.31864			  -0.24471			 0.03201
	29.75			  10.28592			  -0.13405			 0.01459
	30.00			  10.34015			  -0.15165			 -0.09278
	30.25			  10.29156			  -0.13084			 -0.10211
	30.50			  10.24660			  -0.18955			 -0.05889
	30.75			  10.20115			  -0.06147			 0.11876
	31.00			  10.21388			  0.10265			 0.15819
	31.25			  10.29059			  -0.04167			 0.07701
	31.50			  10.25126			  -0.06248			 0.19294
	31.75			  10.28899			  -0.06891			 0.07255
	32.00			  10.45353			  -0.07010			 0.11011
	32.25			  10.40662			  -0.07991			 0.16756
	32.50			  10.32038			  -0.08600			 0.10365
	32.75			  10.24618			  -0.13507			 0.15754
	33.00			  10.29407			  -0.10326			 0.17487
	33.25			  10.23163			  -0.01291			 0.21211
	33.50			  10.26323			  0.07727			 0.22087
	33.75			  10.33291			  0.00198			 0.17183
	34.00			  10.32936			  -0.09057			 0.23331
	34.25			  10.27994			  0.01044			 0.20568
	34.50			  10.30332			  0.05815			 0.26422
	34.75			  10.35337			  0.04191			 0.28754
	35.00			  10.31015			  0.09740			 0.26617
	35.25			  10.25140			  0.09926			 0.35325
	35.50			  10.19850			  0.11060			 0.28304
	35.75			  10.16238			  0.10231			 0.11766
	36.00			  10.17873			  0.04631			 0.25774
	36.25			  10.22384			  0.07168			 0.29408
	36.50			  10.20323			  0.04580			 0.26373
	36.75			  10.29720			  0.07575			 0.17252
	37.00			  10.35852			  0.05426			 0.15147
	37.25			  10.34251			  0.09114			 0.12122
	37.50			  10.33207			  0.22345			 0.04471
	37.75			  10.35128			  0.13310			 0.10550
	38.00			  10.34717			  0.19706			 0.07291
	38.25			  10.18904			  0.35796			 0.17925
	38.50			  10.21388			  0.33072			 0.18933
	38.75			  10.21026			  0.32192			 0.09671
	39.00			  10.19133			  0.43325			 0.14148
	39.25			  10.23219			  0.48858			 0.11176
	39.50			  10.17804			  0.35339			 0.07362
	39.75			  10.17087			  0.32683			 0.15293
	40.00			  10.19272			  0.36845			 0.13819
	40.25			  10.20149			  0.34172			 0.01360
	40.50			  10.18291			  0.22802			 0.07927
	40.75			  10.25996			  0.10502			 0.13088
	41.00			  10.14811			  0.16846			 0.22379
	41.25			  10.11776			  0.18487			 0.19124
	41.50			  9.98183			  0.32666			 0.11807
	41.75			  9.95510			  0.37369			 -0.10211
	42.00			  10.04210			  0.34561			 -0.10475
	42.25			  10.06194			  0.38452			 -0.12927
	42.50			  10.00250			  0.45846			 -0.14926
	42.75			  10.02039			  0.30145			 -0.06616
	43.00			  9.84888			  0.35728			 0.01928
	43.25			  9.93547			  0.34205			 0.00238
	43.50			  9.96797			  0.34679			 -0.01553
	43.75			  10.03577			  0.41921			 -0.10220
	44.00			  10.18590			  0.36913			 -0.05103
	44.25			  10.22551			  0.46218			 0.01838
	44.50			  10.15208			  0.28960			 0.10934
	44.75			  10.05303			  0.25610			 0.19446
	45.00			  10.12820			  0.29620			 0.16458
	45.25			  10.12375			  0.18437			 0.20128
	45.50			  10.12716			  0.12752			 0.26117
	45.75			  10.00222			  0.19418			 0.26703
	46.00			  10.06291			  0.31498			 0.28720
	46.25			  10.17992			  0.33952			 0.28896
	46.50			  10.12618			  0.22650			 0.21684
	46.75			  10.10342			  0.21584			 0.21008
	47.00			  10.08282			  0.22108			 0.12236
	47.25			  10.11581			  0.29654			 0.11874
	47.50			  10.07189			  0.17608			 0.11228
	47.75			  10.05602			  0.11280			 0.13532
	48.00			  10.16112			  0.01670			 0.10563
	48.25			  10.18966			  0.14207			 0.04340
	48.50			  10.22133			  0.05646			 0.21362
	48.75			  10.17156			  0.08387			 0.20480
	49.00			  10.11644			  0.05257			 0.26306
	49.25			  10.08533			  0.00688			 0.27759
	49.50			  10.04885			  0.01517			 0.27874
	49.75			  10.08171			  0.00130			 0.26767
	50.00			  10.14080			  0.11990			 0.27145
	50.25			  10.19279			  0.09148			 0.26158
	50.50			  10.12354			  0.22599			 0.21083
	50.75			  10.22934			  0.25120			 0.09819
	51.00			  10.19753			  0.22819			 0.18330
	51.25			  10.20337			  0.41075			 0.12028
	51.50			  10.16802			  0.33512			 -0.02675
	51.75			  10.20678			  0.30111			 -0.11820
	52.00			  10.21632			  0.30686			 -0.09136
	52.25			  10.18987			  0.29164			 -0.02396
	52.50			  10.17365			  0.32463			 -0.03670
	52.75			  10.12862			  0.33106			 0.00047
	53.00			  10.17365			  0.27032			 0.07978
	53.25			  10.12904			  0.23276			 0.01004
	53.50			  10.09075			  0.24646			 0.02643
	53.75			  9.93255			  0.25526			 -0.03745
	54.00			  9.97027			  0.31888			 -0.09119
	54.25			  9.99421			  0.45220			 -0.08915
	54.50			  10.00730			  0.40872			 -0.06523
	54.75			  10.07120			  0.50871			 -0.02894
	55.00			  10.03660			  0.48824			 0.04067
	55.25			  10.05338			  0.43562			 0.10979
	55.50			  9.99686			  0.31481			 0.09576
	55.75			  9.99999			  0.35339			 0.12346
	56.00			  9.98468			  0.32869			 0.11427
	56.25			  10.06946			  0.37589			 0.05075
	56.50			  9.97556			  0.42580			 0.15585
	56.75			  9.94104			  0.35305			 0.08842
	57.00			  9.88473			  0.28081			 0.08658
	57.25			  9.92357			  0.26676			 0.13764
	57.50			  9.95969			  0.21533			 0.08579
	57.75			  10.02651			  0.14021			 0.16361
	58.00			  9.88953			  0.08404			 0.02851
	58.25			  9.94424			  0.11364			 0.11374
	58.50			  9.99289			  0.03497			 0.16494
	58.75			  9.99839			  -0.13541			 0.07341
	59.00			  9.96721			  -0.06282			 0.05284
	59.25			  9.90352			  0.09131			 0.03003
	59.50			  9.86044			  0.02380			 -0.01386
	59.75			  9.95078			  0.01145			 0.00225
	60.00			  9.89928			  0.05680			 0.06221
	60.25			  9.87589			  0.00384			 0.04940
	60.50			  9.90568			  -0.10444			 0.02180
	60.75			  9.92287			  -0.06079			 -0.00288
	61.00			  10.01210			  -0.06265			 -0.00339
	61.25			  9.89928			  -0.07991			 0.09891
	61.50			  9.93380			  -0.04929			 0.13159
	61.75			  10.01308			  -0.03778			 0.18363
	62.00			  10.10245			  -0.13896			 0.13965
	62.25			  10.15535			  -0.18041			 0.18773
	62.50			  10.18924			  -0.07230			 0.30682
	62.75			  10.12061			  -0.08719			 0.11541
	63.00			  10.13210			  -0.02222			 0.06686
	63.25			  10.20964			  0.00215			 0.00639
	63.50			  10.12305			  -0.05352			 -0.00455
	63.75			  10.09730			  0.00536			 0.02186
	64.00			  10.10649			  0.11635			 0.06450
	64.25			  10.10760			  0.00401			 0.03587
	64.50			  10.15451			  0.05206			 -0.05977
	64.75			  10.08922			  0.04394			 -0.08356
	65.00			  10.11122			  -0.06384			 -0.08733
	65.25			  10.05442			  0.13446			 -0.08109
	65.50			  10.11665			  0.15137			 -0.06339
	65.75			  10.10537			  0.08268			 -0.14529
	66.00			  10.04607			  0.07202			 -0.01034
	66.25			  10.10655			  -0.07382			 0.01427
	66.50			  10.05178			  -0.05030			 -0.01699
	66.75			  9.95809			  -0.05995			 -0.15012
	67.00			  10.02080			  -0.02442			 -0.21439
	67.25			  10.04920			  -0.08837			 -0.22979
	67.50			  10.12799			  -0.09446			 0.00635
	67.75			  10.01203			  -0.06502			 -0.00515
	68.00			  9.90150			  -0.05859			 0.03323
	68.25			  9.83712			  -0.01494			 -0.02686
	68.50			  9.86768			  0.07913			 -0.11181
	68.75			  9.70612			  0.06018			 -0.18124
	69.00			  9.72130			  -0.07754			 -0.20448
	69.25			  9.72868			  -0.24606			 -0.05962
	69.50			  9.70035			  -0.01037			 -0.07189
	69.75			  9.67411			  -0.05436			 -0.08504
	70.00			  9.69381			  -0.03288			 -0.05899
	70.25			  9.75241			  -0.00411			 -0.12152
	70.50			  9.79299			  -0.17500			 0.06037
	70.75			  9.77747			  -0.19513			 0.18045
	71.00			  9.65149			  -0.17009			 0.05584
	71.25			  9.62204			  -0.18955			 -0.00260
	71.50			  9.66102			  -0.16129			 -0.02265
	71.75			  9.71260			  -0.21104			 0.13114
	72.00			  9.69019			  -0.23219			 0.15677
	72.25			  9.70188			  -0.28751			 0.03192
	72.50			  9.77197			  -0.26619			 -0.05367
	72.75			  9.72464			  -0.38497			 0.02312
	73.00			  9.72889			  -0.35147			 0.06686
	73.25			  9.74545			  -0.35874			 0.00189
	73.50			  9.71545			  -0.26873			 -0.05447
	73.75			  9.74329			  -0.32727			 -0.02010
	74.00			  9.67682			  -0.23692			 0.02619
	74.25			  9.57680			  -0.19446			 -0.01227
	74.50			  9.56010			  -0.19209			 -0.00097
	74.75			  9.60450			  -0.21679			 -0.06011
	75.00			  9.58237			  -0.13693			 -0.08838
	75.25			  9.68420			  -0.12018			 -0.13746
	75.50			  9.66053			  -0.11240			 -0.13096
	75.75			  9.73090			  -0.04675			 0.04794
	76.00			  9.71260			  0.02076			 0.16840
	76.25			  9.67104			  -0.10715			 0.22629
	76.50			  9.60812			  -0.07839			 0.19169
	76.75			  9.68267			  -0.02171			 0.15366
	77.00			  9.62893			  -0.07213			 0.11644
	77.25			  9.64780			  -0.23405			 0.15883
	77.50			  9.77322			  -0.17635			 0.09083
	77.75			  9.81457			  -0.30578			 0.12556
	78.00			  9.79577			  -0.45383			 0.12787
	78.25			  9.68831			  -0.45484			 0.07255
	78.50			  9.71100			  -0.41542			 -0.00725
	78.75			  9.72958			  -0.35333			 0.07242
	79.00			  9.80510			  -0.30748			 0.07562
	79.25			  9.75506			  -0.32372			 -0.02746
	79.50			  9.58975			  -0.29326			 -0.11408
	79.75			  9.65650			  -0.24843			 -0.10466
	80.00			  9.81666			  -0.23354			 -0.13476
	80.25			  9.80030			  -0.29123			 -0.02439
	80.50			  9.80893			  -0.13676			 -0.00037
	80.75			  9.82918			  -0.19344			 -0.14484
	81.00			  9.76696			  -0.29631			 -0.09340
	81.25			  9.73181			  -0.32186			 0.00616
	81.50			  9.71754			  -0.18633			 0.07457
	81.75			  9.74837			  -0.14860			 0.10563
	82.00			  9.74545			  -0.13067			 0.04822
	82.25			  9.69206			  -0.12035			 -0.05277
	82.50			  9.69367			  -0.09615			 0.00959
	82.75			  9.68448			  -0.12796			 0.02049
	83.00			  9.61293			  -0.18346			 0.10269
	83.25			  9.66965			  -0.00564			 0.08343
	83.50			  9.60367			  -0.07061			 0.04449
	83.75			  9.55696			  -0.17601			 -0.04383
	84.00			  9.57304			  -0.25536			 0.02240
	84.25			  9.60938			  -0.27059			 0.06566
	84.50			  9.74211			  -0.15537			 0.10069
	84.75			  9.72868			  -0.12678			 0.17412
	85.00			  9.82410			  -0.06401			 0.09868
	85.25			  9.84833			  -0.04573			 0.15437
	85.50			  9.91222			  -0.07534			 0.19630
	85.75			  9.90415			  0.03379			 0.23633
	86.00			  9.95294			  -0.04337			 0.22857
	86.25			  9.93470			  -0.01308			 0.09531
	86.50			  9.86914			  -0.00750			 0.11998
	86.75			  9.81638			  -0.01782			 -0.09887
	87.00			  9.75116			  -0.07297			 -0.10610
	87.25			  9.73424			  -0.09108			 -0.11957
	87.50			  9.67334			  -0.01105			 -0.02857
	87.75			  9.75624			  -0.01240			 -0.05110
	88.00			  9.76717			  -0.07247			 -0.11348
	88.25			  9.75596			  -0.18481			 -0.10552
	88.50			  9.66513			  -0.22271			 0.05284
	88.75			  9.66248			  -0.16282			 0.04945
	89.00			  9.67480			  -0.27753			 0.07227
	89.25			  9.63652			  -0.24048			 0.09814
	89.50			  9.74239			  -0.21205			 0.11193
	89.75			  9.77900			  -0.26873			 0.05848
	90.00			  9.65866			  -0.28650			 0.04842
	90.25			  9.62817			  -0.29868			 0.00650
	90.50			  9.60360			  -0.23151			 0.03316
	90.75			  9.57771			  -0.32761			 0.04042
	91.00			  9.64982			  -0.14370			 -0.02847
	91.25			  9.74587			  -0.16451			 0.00965
	91.50			  9.77051			  -0.16535			 -0.05983
	91.75			  9.80566			  -0.20055			 -0.14115
	92.00			  9.68893			  -0.19801			 0.04346
	92.25			  9.68128			  -0.26281			 -0.01736
	92.50			  9.71169			  -0.28531			 -0.04604
	92.75			  9.63054			  -0.25926			 0.09138
	93.00			  9.51256			  -0.26298			 -0.09939
	93.25			  9.64571			  -0.19835			 -0.11822
	93.50			  9.61035			  -0.18938			 -0.00339
	93.75			  9.61961			  -0.32676			 0.06273
	94.00			  9.64731			  -0.20393			 0.12363
	94.25			  9.61467			  -0.22829			 0.15023
	94.50			  9.68162			  -0.21121			 0.10730
	94.75			  9.74009			  -0.07907			 0.09454
	95.00			  9.79807			  -0.11274			 0.12860
	95.25			  9.66812			  -0.12136			 0.04814
	95.50			  9.76988			  -0.10749			 0.12536
	95.75			  9.76090			  -0.19361			 0.12073
	96.00			  9.64759			  -0.26704			 0.12483
	96.25			  9.75638			  -0.30764			 0.16503
	96.50			  9.75081			  -0.21391			 0.15971
	96.75			  9.70125			  -0.15250			 0.19084
	97.00			  9.53922			  -0.11781			 0.09765
	97.25			  9.56441			  -0.09395			 0.01450
	97.50			  9.57604			  -0.04675			 0.19096
	97.75			  9.58272			  -0.14099			 0.24595
	98.00			  9.51471			  -0.17618			 0.18191
	98.25			  9.63875			  -0.15131			 0.17732
	98.50			  9.68427			  -0.17212			 0.15005
	98.75			  9.68114			  -0.07281			 0.12080
	99.00			  9.70007			  -0.10715			 0.12547
	99.25			  9.71023			  -0.01596			 0.18178
	99.50			  9.74197			  0.00722			 0.09645
	99.75			  9.74378			  0.04631			 0.11494
	100.00			  9.72332			  0.04309			 0.06794
	100.25			  9.72979			  -0.01443			 -0.00598
	100.50			  9.69158			  -0.05927			 -0.00725
	100.75			  9.77775			  -0.08279			 0.04353
	101.00			  9.77072			  -0.12255			 -0.04962
	101.25			  9.80851			  -0.18397			 -0.06669
	101.50			  9.83385			  -0.25469			 0.04194
	101.75			  9.77246			  -0.20241			 0.03660
	102.00			  9.76042			  -0.13879			 0.01274
	102.25			  9.65225			  -0.09565			 -0.00075
	102.50			  9.67334			  -0.05673			 0.03053
	102.75			  9.64620			  -0.02831			 0.14881
	103.00			  9.61829			  -0.05216			 0.23237
	103.25			  9.57778			  -0.09006			 0.11440
	103.50			  9.54757			  -0.03406			 0.07770
	103.75			  9.58369			  -0.04658			 0.08164
	104.00			  9.65420			  -0.14082			 0.04200
	104.25			  9.63276			  -0.12136			 0.17608
	104.50			  9.71629			  -0.18989			 0.23829
	104.75			  9.66297			  -0.33759			 0.20437
	105.00			  9.70682			  -0.28497			 0.09887
	105.25			  9.89886			  -0.29106			 0.16226
	105.50			  9.93665			  -0.29106			 0.13255
	105.75			  9.92635			  -0.31103			 0.09299
	106.00			  9.75554			  -0.28650			 0.16181
	106.25			  9.82076			  -0.26264			 0.18380
	106.50			  9.88675			  -0.31340			 0.07472
	106.75			  9.88835			  -0.35011			 0.03106
	107.00			  9.92914			  -0.33607			 0.00884
	107.25			  9.94779			  -0.36720			 -0.06541
	107.50			  10.09688			  -0.38514			 -0.06146
	107.75			  10.08157			  -0.32490			 -0.07669
	108.00			  10.10266			  -0.39055			 -0.07000
	108.25			  10.04718			  -0.44334			 -0.14664
	108.50			  10.00646			  -0.33675			 -0.20710
	108.75			  10.06584			  -0.29428			 -0.16462
	109.00			  10.08553			  -0.28819			 -0.06356
	109.25			  10.04962			  -0.22373			 -0.01439
	109.50			  10.07447			  -0.14488			 -0.03514
	109.75			  10.02303			  -0.27313			 -0.05118
	110.00			  10.04412			  -0.14336			 -0.06950
	110.25			  10.01517			  -0.04455			 -0.00302
	110.50			  10.06424			  -0.02205			 -0.11917
	110.75			  10.03333			  -0.05386			 0.00191
	111.00			  10.00730			  -0.14945			 -0.01094
	111.25			  9.95266			  -0.11595			 0.05886
	111.50			  10.00271			  -0.17178			 0.02332
	111.75			  10.03097			  -0.11257			 -0.00081
	112.00			  9.86245			  -0.14742			 0.02598
	112.25			  9.89893			  -0.21966			 0.02460
	112.50			  9.94500			  -0.32998			 0.03301
	112.75			  9.93832			  -0.30257			 0.05601
	113.00			  9.90324			  -0.13930			 0.05460
	113.25			  9.88696			  -0.04286			 0.13146
	113.50			  9.84686			  -0.00699			 0.14596
	113.75			  9.79772			  -0.15740			 0.08907
	114.00			  9.77107			  -0.25790			 0.01785
	114.25			  9.74148			  -0.29106			 0.09613
	114.50			  9.73063			  -0.21679			 0.05968
	114.75			  9.82877			  -0.18092			 0.05554
	115.00			  9.87088			  -0.25621			 0.02570
	115.25			  9.93867			  -0.25249			 -0.03540
	115.50			  9.97897			  -0.21442			 -0.00174
	115.75			  9.88981			  -0.21222			 -0.12980
	116.00			  9.82229			  -0.19056			 -0.18901
	116.25			  9.78283			  -0.18718			 -0.07493
	116.50			  9.72937			  -0.19835			 -0.07004
	116.75			  9.76633			  -0.21493			 0.00202
	117.00			  9.83914			  -0.26213			 0.09420
	117.25			  9.80308			  -0.23963			 0.11717
	117.50			  9.73153			  -0.12204			 0.20238
	117.75			  9.72081			  -0.16518			 0.20489
	118.00			  9.72304			  -0.12898			 0.15366
	118.25			  9.64049			  -0.07940			 0.15179
	118.50			  9.69304			  -0.10749			 0.14787
	118.75			  9.78192			  -0.10258			 0.17857
	119.00			  9.78199			  -0.18413			 0.06161
	119.25			  9.85034			  -0.25520			 0.13064
	119.50			  9.81519			  -0.18667			 0.01622
	119.75			  9.71107			  -0.21713			 0.07144
	120.00			  9.81373			  -0.15097			 0.09900
	120.25			  9.91327			  -0.19496			 0.15419
	120.50			  9.89705			  -0.23946			 0.11449
	120.75			  9.90742			  -0.08245			 0.30753
	121.00			  9.88403			  -0.08566			 0.31491
	121.25			  9.93213			  0.00519			 0.24944
	121.50			  10.01329			  -0.04083			 0.30120
	121.75			  9.97848			  -0.00987			 0.25763
	122.00			  9.95454			  -0.03558			 0.28524
	122.25			  10.01704			  0.03125			 0.19135
	122.50			  10.01572			  0.12363			 0.17814
	122.75			  10.04015			  0.12887			 0.14055
	123.00			  10.00876			  0.08827			 0.03593
	123.25			  9.94605			  0.11737			 -0.00126
	123.50			  9.82424			  0.03209			 0.02866
	123.75			  9.85723			  0.08708			 0.11693
	124.00			  9.87436			  0.00858			 0.22464
	124.25			  9.87839			  -0.03880			 0.08763
	124.50			  9.81109			  0.08150			 0.12436
	124.75			  9.84025			  0.07676			 0.08667
	125.00			  9.89545			  0.11128			 0.01570
	125.25			  9.82577			  0.04867			 0.12987
	125.50			  9.80113			  -0.07196			 0.11620
	125.75			  9.80510			  -0.18769			 0.12747
	126.00			  9.81443			  -0.18481			 0.13523
	126.25			  9.74629			  -0.22119			 0.20680
	126.50			  9.82849			  -0.20444			 0.38720
	126.75			  9.76417			  -0.16265			 0.27535
	127.00			  9.72638			  -0.21137			 0.22351
	127.25			  9.72680			  -0.18397			 0.24564
	127.50			  9.72046			  -0.15469			 0.22820
	127.75			  9.73111			  -0.11713			 0.14879
	128.00			  9.86475			  -0.13998			 -0.02246
	128.25			  9.94939			  -0.21425			 0.04042
	128.50			  9.89106			  -0.23337			 0.06006
	128.75			  9.87046			  -0.32592			 0.07843
	129.00			  9.92162			  -0.38936			 0.12699
	129.25			  9.90853			  -0.27144			 0.03788
	129.50			  9.83211			  -0.22643			 0.06751
	129.75			  9.80858			  -0.26721			 0.04009
	130.00			  9.77782			  -0.25536			 -0.01060
	130.25			  9.77044			  -0.32270			 -0.12526
	130.50			  9.83705			  -0.30409			 -0.15666
	130.75			  9.73411			  -0.30240			 -0.18781
	131.00			  9.80496			  -0.38514			 -0.15583
	131.25			  9.76926			  -0.49934			 -0.15613
	131.50			  9.79946			  -0.51711			 -0.02771
	131.75			  9.81833			  -0.47108			 -0.06496
	132.00			  9.79515			  -0.40950			 0.02420
	132.25			  9.82577			  -0.30375			 0.00776
	132.50			  9.76494			  -0.38107			 0.05736
	132.75			  9.84206			  -0.43217			 0.12508
	133.00			  9.90798			  -0.34368			 0.01139
	133.25			  9.89099			  -0.32084			 0.01396
	133.50			  9.92461			  -0.34131			 0.01583
	133.75			  10.02811			  -0.34757			 -0.02203
	134.00			  9.92844			  -0.42693			 -0.11597
	134.25			  9.82007			  -0.38598			 -0.22904
	134.50			  9.77197			  -0.42236			 -0.08557
	134.75			  9.78304			  -0.46804			 -0.05247
	135.00			  9.99206			  -0.37295			 -0.08177
	135.25			  10.05045			  -0.32795			 -0.11494
	135.50			  9.99352			  -0.37634			 -0.13838
	135.75			  9.91563			  -0.34047			 -0.19015
	136.00			  9.87714			  -0.38801			 -0.16400
	136.25			  9.82494			  -0.46618			 -0.10816
	136.50			  9.84721			  -0.41677			 -0.13832
	136.75			  9.82577			  -0.22356			 -0.17453
	137.00			  9.89106			  -0.27414			 0.06215
	137.25			  9.88006			  -0.24267			 0.07049
	137.50			  9.92475			  -0.25012			 0.09110
	137.75			  9.91946			  -0.19107			 0.19869
	138.00			  9.97918			  -0.08922			 0.05209
	138.25			  10.02811			  -0.06976			 0.03216
	138.50			  10.03034			  -0.08228			 0.04588
	138.75			  10.07753			  -0.02949			 0.00127
	139.00			  10.11526			  0.01196			 -0.01223
	139.25			  10.03333			  -0.06536			 -0.09362
	139.50			  10.01885			  -0.11730			 -0.09967
	139.75			  10.03041			  -0.14488			 -0.08995
	140.00			  9.98858			  -0.13676			 0.03810
	140.25			  10.01245			  -0.16975			 0.04149
	140.50			  9.93143			  -0.17855			 -0.02139
	140.75			  9.93067			  -0.05318			 -0.02358
	141.00			  9.95621			  0.00350			 -0.17972
	141.25			  10.02282			  0.08201			 -0.21499
	141.50			  10.00688			  0.01061			 -0.24663
	141.75			  10.02213			  -0.03457			 -0.18157
	142.00			  9.98760			  0.01602			 -0.14637
	142.25			  10.08122			  0.00807			 -0.00639
	142.50			  10.08087			  -0.01477			 0.00508
	142.75			  9.94354			  -0.02442			 -0.05161
	143.00			  9.91389			  -0.00225			 -0.00333
	143.25			  9.92802			  -0.13761			 -0.09385
	143.50			  9.85271			  -0.20072			 -0.08761
	143.75			  9.95635			  -0.07822			 -0.14686
	144.00			  10.01621			  -0.18633			 -0.16544
	144.25			  10.11066			  -0.15351			 -0.22104
	144.50			  10.19711			  -0.26399			 -0.22975
	144.75			  10.14783			  -0.16265			 -0.19566
	145.00			  10.16412			  -0.15859			 -0.22928
	145.25			  10.08442			  -0.15656			 -0.08197
	145.50			  10.15966			  -0.18532			 0.01499
	145.75			  10.17463			  -0.22728			 0.03786
	146.00			  10.20031			  -0.07433			 0.00641
	146.25			  10.18736			  0.04817			 0.06970
	146.50			  10.12820			  0.02516			 0.12819
	146.75			  10.11818			  -0.06367			 0.14334
	147.00			  10.17421			  0.03531			 0.10940
	147.25			  10.15897			  -0.00496			 0.08969
	147.50			  10.20539			  -0.02526			 0.05663
	147.75			  10.18827			  0.00824			 -0.03096
	148.00			  10.19439			  0.14055			 -0.02752
	148.25			  10.15340			  0.13023			 0.03389
	148.50			  10.07509			  0.37555			 -0.02499
	148.75			  9.98064			  0.33258			 -0.05138
	149.00			  9.98447			  0.16203			 -0.27520
	149.25			  9.98879			  0.17912			 -0.24303
	149.50			  10.00187			  0.14275			 -0.14347
	149.75			  10.02052			  0.01551			 -0.22711
	150.00			  10.01503			  -0.01579			 -0.14124
	150.25			  10.07593			  -0.10580			 -0.17318
	150.50			  10.08205			  -0.05149			 -0.23290
	150.75			  9.98607			  0.03463			 -0.21467
	151.00			  9.95774			  0.08725			 -0.15782
	151.25			  10.02909			  0.00976			 -0.16275
	151.50			  10.05616			  0.15324			 -0.07914
	151.75			  10.10412			  0.14528			 -0.09836
	152.00			  10.07927			  0.13750			 -0.13013
	152.25			  10.10502			  0.18149			 -0.10342
	152.50			  10.16328			  0.27928			 0.06965
	152.75			  10.09243			  0.35661			 0.00873
	153.00			  10.13537			  0.41498			 0.02525
	153.25			  10.21806			  0.41548			 -0.01868
	153.50			  10.08324			  0.26203			 -0.14195
	153.75			  10.06270			  0.29485			 -0.19487
	154.00			  10.02783			  0.31465			 -0.16734
	154.25			  9.99018			  0.30094			 -0.07156
	154.50			  9.99018			  0.30145			 -0.16683
	154.75			  9.90136			  0.39417			 -0.03829
	155.00			  9.79550			  0.40195			 -0.06270
	155.25			  9.79591			  0.34645			 -0.04880
	155.50			  9.78596			  0.31448			 0.05734
	155.75			  9.79055			  0.22785			 0.01291
	156.00			  9.70981			  0.20670			 0.02709
	156.25			  9.79195			  0.22142			 -0.05738
	156.50			  9.69875			  0.12007			 -0.08227
	156.75			  9.70355			  0.14224			 -0.02860
	157.00			  9.72039			  0.25610			 0.10314
	157.25			  9.70160			  0.36303			 0.11453
	157.50			  9.76765			  0.24612			 0.14885
	157.75			  9.67919			  0.22717			 0.13296
	158.00			  9.70995			  0.25187			 0.13066
	158.25			  9.63485			  0.34256			 0.11595
	158.50			  9.62706			  0.37420			 0.03780
	158.75			  9.51868			  0.19029			 -0.09728
	159.00			  9.56044			  0.13869			 -0.05007
	159.25			  9.58077			  0.17895			 0.02283
	159.50			  9.59900			  0.27827			 0.05099
	159.75			  9.62427			  0.25627			 0.07010
	160.00			  9.61592			  0.26186			 0.12324
	160.25			  9.53713			  0.27472			 0.00328
	160.50			  9.48117			  0.23969			 0.00303
	160.75			  9.50100			  0.17878			 0.00785
	161.00			  9.50511			  0.16000			 0.07431
	161.25			  9.53699			  0.31109			 0.03876
	161.50			  9.48729			  0.20721			 0.04136
	161.75			  9.42193			  0.18098			 -0.00965
	162.00			  9.46690			  0.09469			 0.02802
	162.25			  9.51012			  -0.02425			 -0.02902
	162.50			  9.49091			  -0.09988			 -0.05704
	162.75			  9.39312			  -0.08110			 0.02956
	163.00			  9.32101			  -0.06130			 0.13090
	163.25			  9.35477			  0.04867			 0.05063
	163.50			  9.33020			  0.02127			 -0.00399
	163.75			  9.25823			  0.01873			 -0.00959
	164.00			  9.33688			  0.08319			 0.03582
	164.25			  9.41295			  0.03480			 0.04659
	164.50			  9.38811			  0.04208			 -0.02062
	164.75			  9.39527			  0.10197			 0.00504
	165.00			  9.45653			  0.08573			 0.01369
	165.25			  9.40906			  -0.05792			 -0.04106
	165.50			  9.35609			  -0.02898			 0.02137
	165.75			  9.43022			  -0.10834			 -0.03228
	166.00			  9.34794			  -0.13371			 0.02553
	166.25			  9.27827			  -0.06976			 0.06463
	166.50			  9.36249			  0.01907			 0.07795
	166.75			  9.40091			  0.02753			 0.07203
	167.00			  9.47699			  0.11889			 0.05914