--------------TurbSim v2.00.* User Time Series Input File-----------------------
     Time series input from low-res turbsim run
--------------------------------------------------------------------------------
          3 nComp - Number of velocity components in the file
          1 nPoints - Number of time series points contained in this file (-)
          1 RefPtID - Index of the reference point (1-nPoints)
     Pointyi Pointzi ! nPoints listed in order of increasing height
       (m)     (m)
       -1.82213   94.00000
--------Time Series-------------------------------------------------------------
Elapsed Time         Point01u             Point01v           Point01w
         (s)            (m/s)                (m/s)              (m/s)
	0.00			  10.71067			  0.07512			 0.04112
	0.25			  10.74245			  0.02477			 0.05561
	0.50			  10.58344			  0.17970			 -0.10688
	0.75			  10.50589			  0.10069			 0.04530
	1.00			  10.42114			  0.10127			 -0.05726
	1.25			  10.34378			  0.06699			 0.07095
	1.50			  10.57924			  0.10437			 0.01629
	1.75			  10.71736			  -0.14042			 0.22544
	2.00			  10.72885			  -0.30115			 0.04840
	2.25			  10.55126			  -0.61004			 -0.30374
	2.50			  10.56215			  -0.40147			 -0.26996
	2.75			  10.54636			  -0.49868			 -0.19824
	3.00			  10.64041			  -0.38462			 -0.23859
	3.25			  10.83819			  -0.13286			 -0.28862
	3.50			  10.76463			  -0.17295			 -0.17061
	3.75			  10.73885			  -0.12860			 -0.18125
	4.00			  10.75264			  -0.28876			 -0.15336
	4.25			  10.57544			  -0.23492			 -0.04027
	4.50			  10.55506			  -0.26610			 0.00072
	4.75			  10.45881			  -0.30251			 0.03291
	5.00			  10.37466			  -0.40147			 0.00513
	5.25			  10.49909			  -0.34628			 0.17026
	5.50			  10.50778			  -0.27075			 0.18934
	5.75			  10.49799			  0.01199			 -0.03878
	6.00			  10.39055			  -0.06818			 0.00987
	6.25			  10.33269			  -0.20239			 -0.05610
	6.50			  10.44982			  -0.12376			 0.12654
	6.75			  10.22065			  -0.13228			 0.14786
	7.00			  10.10142			  -0.13829			 0.19266
	7.25			  10.14830			  -0.06702			 -0.12890
	7.50			  10.07924			  -0.25932			 -0.23792
	7.75			  10.15419			  -0.02287			 -0.04001
	8.00			  10.02327			  0.25600			 -0.20421
	8.25			  10.36767			  0.31662			 -0.42587
	8.50			  10.50718			  0.34373			 -0.35676
	8.75			  10.66229			  0.45547			 -0.33320
	9.00			  10.73175			  0.11095			 -0.28104
	9.25			  10.56175			  -0.07283			 -0.14738
	9.50			  10.57594			  -0.03177			 -0.05584
	9.75			  10.64141			  -0.12357			 0.17814
	10.00			  10.86198			  -0.20200			 0.00602
	10.25			  10.82330			  -0.25022			 -0.21858
	10.50			  10.44972			  -0.18670			 -0.07813
	10.75			  10.55026			  -0.03584			 -0.05487
	11.00			  10.38036			  -0.14468			 -0.15355
	11.25			  10.57005			  -0.25932			 -0.01485
	11.50			  10.40754			  -0.21091			 -0.24278
	11.75			  10.39595			  -0.36467			 -0.32129
	12.00			  10.60123			  -0.53993			 -0.20342
	12.25			  10.58124			  -0.63463			 -0.07085
	12.50			  10.84379			  -0.81222			 -0.06693
	12.75			  10.93543			  -0.93926			 -0.01555
	13.00			  10.80741			  -0.77484			 0.08107
	13.25			  10.70307			  -0.77697			 0.13718
	13.50			  10.72416			  -0.85579			 0.14909
	13.75			  10.65070			  -0.51011			 0.00423
	14.00			  10.83719			  -0.37745			 0.26562
	14.25			  10.74724			  -0.29670			 0.17665
	14.50			  10.58614			  -0.40650			 0.04104
	14.75			  10.49529			  -0.24577			 0.00770
	15.00			  10.51108			  -0.04707			 0.08028
	15.25			  10.09792			  -0.05211			 0.17489
	15.50			  9.96270			  -0.08968			 0.27069
	15.75			  10.06744			  -0.14390			 0.05620
	16.00			  10.04506			  -0.08038			 0.10246
	16.25			  9.81149			  -0.00892			 -0.01813
	16.50			  9.87685			  0.21359			 -0.23382
	16.75			  10.04925			  0.01509			 -0.38054
	17.00			  9.92942			  0.16924			 -0.40111
	17.25			  10.05965			  -0.07651			 -0.44099
	17.50			  10.10572			  -0.36022			 0.09010
	17.75			  10.08093			  -0.48919			 0.03250
	18.00			  10.00938			  -0.51205			 -0.01122
	18.25			  9.80250			  -0.29147			 0.04683
	18.50			  9.62410			  -0.31665			 0.06050
	18.75			  9.40903			  -0.15262			 0.27308
	19.00			  9.29540			  -0.10168			 0.14655
	19.25			  9.51756			  -0.00950			 0.18945
	19.50			  9.57883			  0.02071			 0.22406
	19.75			  9.49498			  -0.10033			 0.28578
	20.00			  9.60232			  0.02768			 0.31762
	20.25			  9.42762			  -0.07419			 0.05228
	20.50			  9.47099			  -0.12667			 -0.31207
	20.75			  9.37795			  -0.25874			 -0.27044
	21.00			  9.33007			  -0.43749			 0.07834
	21.25			  9.71955			  -0.35402			 0.17941
	21.50			  9.79780			  -0.33562			 0.33696
	21.75			  9.75613			  -0.23821			 0.22918
	22.00			  9.78041			  -0.29418			 0.11277
	22.25			  9.70156			  -0.37261			 -0.13510
	22.50			  9.60561			  -0.17469			 -0.01414
	22.75			  9.66178			  -0.14816			 0.19360
	23.00			  9.73634			  -0.03933			 0.14543
	23.25			  9.87186			  0.15917			 -0.05681
	23.50			  9.82718			  0.15898			 -0.08153
	23.75			  9.86716			  0.09159			 0.22817
	24.00			  9.94601			  0.02884			 -0.06648
	24.25			  10.03776			  0.12025			 -0.18547
	24.50			  9.70805			  0.10185			 -0.22023
	24.75			  9.69996			  0.28195			 -0.19749
	25.00			  9.69996			  0.20313			 -0.10187
	25.25			  9.64039			  0.19926			 -0.13111
	25.50			  9.41073			  0.10243			 -0.08653
	25.75			  9.49778			  -0.12841			 0.01133
	26.00			  9.61391			  -0.15107			 -0.06043
	26.25			  9.62260			  -0.16947			 -0.17613
	26.50			  9.54995			  -0.36080			 -0.33600
	26.75			  9.49828			  -0.28876			 -0.36747
	27.00			  9.73674			  -0.24983			 -0.24222
	27.25			  9.61531			  -0.07031			 -0.15425
	27.50			  9.37085			  0.29686			 -0.27074
	27.75			  9.35206			  0.00831			 -0.41530
	28.00			  9.35426			  -0.03565			 -0.34272
	28.25			  9.11670			  -0.05559			 0.28242
	28.50			  9.24313			  -0.02422			 0.10011
	28.75			  9.59602			  -0.02616			 -0.02564
	29.00			  9.54935			  0.02226			 -0.09071
	29.25			  9.66078			  0.11018			 -0.25491
	29.50			  9.62610			  -0.11485			 0.06584
	29.75			  9.68037			  -0.05346			 -0.00028
	30.00			  9.79410			  0.00734			 -0.08134
	30.25			  9.70685			  -0.04843			 -0.36830
	30.50			  9.55844			  -0.20684			 -0.36273
	30.75			  9.63480			  -0.16772			 -0.54941
	31.00			  9.68177			  -0.32923			 -0.45921
	31.25			  9.62050			  -0.02035			 -0.46077
	31.50			  9.58732			  -0.05250			 -0.28795
	31.75			  9.52716			  -0.37106			 -0.38726
	32.00			  9.58932			  -0.37823			 -0.60784
	32.25			  9.62000			  -0.57673			 -0.61482
	32.50			  9.75543			  -0.69137			 -0.62527
	32.75			  9.60212			  -0.95165			 -0.49934
	33.00			  9.54315			  -0.90343			 -0.59219
	33.25			  9.54585			  -0.84708			 -0.57715
	33.50			  9.56094			  -0.85773			 -0.55583
	33.75			  9.51607			  -0.80679			 -0.54519
	34.00			  9.42022			  -0.82422			 -0.43793
	34.25			  9.56883			  -0.86082			 -0.35814
	34.50			  9.47859			  -0.67085			 -0.31827
	34.75			  9.35946			  -0.62069			 -0.16882
	35.00			  9.42932			  -0.43478			 -0.09810
	35.25			  9.46470			  -0.49346			 0.02499
	35.50			  9.36086			  -0.49888			 -0.08728
	35.75			  9.35096			  -0.55252			 -0.04710
	36.00			  9.57563			  -0.62902			 0.11949
	36.25			  9.56724			  -0.78123			 0.15899
	36.50			  9.74433			  -0.99077			 0.13125
	36.75			  9.87016			  -1.12710			 -0.08862
	37.00			  9.84967			  -1.04616			 -0.08168
	37.25			  9.86646			  -1.17629			 -0.05278
	37.50			  9.60461			  -1.01478			 0.07775
	37.75			  9.43521			  -0.92744			 0.08118
	38.00			  9.50587			  -0.98186			 -0.29310
	38.25			  9.65448			  -0.97838			 -0.09795
	38.50			  9.63949			  -0.93964			 -0.12603
	38.75			  9.54915			  -1.07036			 -0.17479
	39.00			  9.44801			  -1.13098			 -0.11065
	39.25			  9.38744			  -1.48363			 -0.27757
	39.50			  9.39134			  -1.60079			 -0.22198
	39.75			  9.53955			  -1.58298			 -0.31524
	40.00			  9.29250			  -1.54347			 -0.34451
	40.25			  9.60281			  -1.23826			 -0.52361
	40.50			  9.61891			  -1.30391			 -0.40332
	40.75			  9.38005			  -1.31863			 -0.24606
	41.00			  9.13729			  -1.16371			 -0.05222
	41.25			  9.15338			  -1.07288			 -0.10135
	41.50			  9.18686			  -0.77542			 0.01491
	41.75			  9.20935			  -0.45821			 -0.14671
	42.00			  9.30629			  -0.43110			 -0.33903
	42.25			  9.26941			  -0.41696			 -0.13764
	42.50			  9.10671			  -0.38443			 0.00322
	42.75			  9.23953			  -0.47157			 0.20379
	43.00			  9.31658			  -0.57227			 0.25565
	43.25			  9.27491			  -0.67336			 0.24180
	43.50			  9.30289			  -0.50934			 0.11934
	43.75			  9.52026			  -0.59338			 -0.09392
	44.00			  9.33287			  -0.63812			 -0.10964
	44.25			  9.33057			  -0.40573			 -0.27959
	44.50			  9.50137			  -0.20858			 -0.45951
	44.75			  9.27481			  -0.28082			 -0.55139
	45.00			  9.49528			  -0.12376			 -0.39783
	45.25			  9.58363			  -0.22330			 -0.41676
	45.50			  9.53156			  -0.32187			 -0.27115
	45.75			  9.61031			  -0.01415			 -0.44192
	46.00			  9.45340			  0.21785			 -0.50838
	46.25			  9.52176			  0.13942			 -0.34926
	46.50			  9.60082			  0.17486			 -0.04419
	46.75			  9.67287			  0.07009			 -0.18121
	47.00			  9.69096			  -0.18360			 -0.14447
	47.25			  9.55204			  -0.15262			 0.17396
	47.50			  9.66808			  -0.24828			 0.05419
	47.75			  9.75603			  -0.18864			 -0.12834
	48.00			  9.57373			  -0.57963			 -0.22452
	48.25			  9.66008			  -0.59977			 -0.02900
	48.50			  9.56174			  -0.53548			 -0.00659
	48.75			  9.38284			  -0.54710			 -0.31521
	49.00			  9.37075			  -0.18728			 -0.23714
	49.25			  9.18986			  -0.15649			 0.07412
	49.50			  9.16587			  0.08055			 -0.01302
	49.75			  9.29689			  -0.00408			 0.03391
	50.00			  9.57753			  0.10592			 0.03742
	50.25			  9.44681			  0.12509			 -0.08291
	50.50			  9.19955			  0.20468			 0.07894
	50.75			  8.98808			  0.28098			 0.11657
	51.00			  9.18386			  0.35167			 0.13196
	51.25			  9.22214			  0.59161			 0.12053
	51.50			  9.17167			  0.47793			 0.09966
	51.75			  9.38664			  0.34838			 0.03123
	52.00			  9.62570			  0.55249			 -0.15396
	52.25			  9.58902			  0.53390			 -0.11460
	52.50			  9.54995			  0.76784			 -0.10490
	52.75			  9.79100			  0.65184			 0.04560
	53.00			  9.88375			  0.57922			 -0.06006
	53.25			  9.83368			  0.85595			 -0.21533
	53.50			  9.94841			  0.74150			 -0.10053
	53.75			  10.02877			  0.55733			 -0.03568
	54.00			  9.88995			  0.58619			 0.14282
	54.25			  9.84277			  0.29609			 0.12841
	54.50			  9.80849			  0.21611			 0.14476
	54.75			  9.86796			  0.06583			 0.26580
	55.00			  9.67207			  0.23819			 0.29067
	55.25			  9.72015			  0.33656			 0.13883
	55.50			  9.59402			  0.38265			 0.08383
	55.75			  9.86206			  0.52945			 0.04302
	56.00			  9.85017			  0.80483			 0.00479
	56.25			  9.75632			  0.90166			 -0.04927
	56.50			  9.60252			  0.87300			 0.07987
	56.75			  9.76972			  0.62124			 -0.09721
	57.00			  9.50307			  0.41345			 -0.15747
	57.25			  9.62990			  0.33424			 -0.36591
	57.50			  9.85267			  0.50660			 -0.27977
	57.75			  9.88105			  0.46670			 -0.32689
	58.00			  9.74553			  0.41383			 -0.29101
	58.25			  9.69586			  0.28834			 -0.47791
	58.50			  9.72574			  0.49536			 -0.60948
	58.75			  9.72514			  0.32475			 -0.51812
	59.00			  9.77162			  0.26859			 -0.41060
	59.25			  9.65418			  0.09894			 -0.53679
	59.50			  9.71515			  0.02729			 -0.57476
	59.75			  9.66078			  0.03697			 -0.58674
	60.00			  9.80170			  0.20759			 -0.62695
	60.25			  9.74383			  0.35477			 -0.49602
	60.50			  9.82249			  0.37975			 -0.40164
	60.75			  9.83888			  0.26723			 -0.31995
	61.00			  9.85527			  0.16963			 -0.36438
	61.25			  9.78751			  0.04821			 -0.52648
	61.50			  9.82508			  0.23915			 -0.63117
	61.75			  9.86176			  0.27111			 -0.66877
	62.00			  9.92892			  0.07493			 -0.76726
	62.25			  9.95761			  0.23373			 -0.69516
	62.50			  9.90484			  0.40047			 -0.62158
	62.75			  9.75463			  0.54475			 -0.34601
	63.00			  9.66838			  0.48142			 -0.20395
	63.25			  9.68417			  0.37065			 -0.09948
	63.50			  9.66838			  0.12218			 -0.11173
	63.75			  9.67367			  0.05808			 -0.17856
	64.00			  9.54665			  -0.06838			 -0.35194
	64.25			  9.55594			  0.04123			 -0.52062
	64.50			  9.49418			  0.06060			 -0.50673
	64.75			  9.60421			  0.08616			 -0.47631
	65.00			  9.42442			  0.21185			 -0.57439
	65.25			  9.35426			  0.19810			 -0.62654
	65.50			  9.32268			  -0.03739			 -0.54295
	65.75			  9.41672			  0.02206			 -0.57129
	66.00			  9.43132			  -0.05075			 -0.62415
	66.25			  9.49598			  -0.01648			 -0.65365
	66.50			  9.67497			  0.10359			 -0.41986
	66.75			  9.64289			  0.01064			 -0.29542
	67.00			  9.53515			  0.14794			 -0.29400
	67.25			  9.51986			  0.12896			 -0.15075
	67.50			  9.31199			  0.25387			 -0.02440
	67.75			  9.17387			  0.28776			 -0.07171
	68.00			  9.19475			  0.35922			 -0.22971
	68.25			  9.18516			  0.23528			 -0.22956
	68.50			  9.20435			  0.02826			 -0.11472
	68.75			  9.21734			  0.12509			 -0.24774
	69.00			  9.11630			  0.09081			 -0.55803
	69.25			  9.04984			  0.05615			 -0.56505
	69.50			  9.13799			  0.01044			 -0.70327
	69.75			  9.10131			  -0.08426			 -0.57147
	70.00			  9.08732			  -0.18651			 -0.52290
	70.25			  9.07812			  0.03465			 -0.52779
	70.50			  9.09431			  0.03426			 -0.56781
	70.75			  8.94240			  -0.13383			 -0.64506
	71.00			  9.17946			  -0.34724			 -0.55157
	71.25			  9.54595			  -0.20239			 -0.68538
	71.50			  9.73284			  -0.43613			 -0.69662
	71.75			  10.02617			  -0.74618			 -0.56752
	72.00			  9.91363			  -0.73185			 -0.54795
	72.25			  9.85137			  -0.70706			 -0.61516
	72.50			  9.66738			  -0.67394			 -0.48971
	72.75			  9.52116			  -0.36002			 -0.49307
	73.00			  9.58273			  -0.37668			 -0.49621
	73.25			  9.77731			  -0.50779			 -0.31636
	73.50			  9.68687			  -0.42877			 -0.25185
	73.75			  9.75153			  -0.49287			 -0.34765
	74.00			  9.89344			  -0.44369			 -0.39189
	74.25			  9.75682			  -0.16772			 -0.19487
	74.50			  9.84947			  -0.29825			 -0.25368
	74.75			  9.84637			  -0.16249			 -0.29064
	75.00			  9.90304			  -0.14235			 -0.20817
	75.25			  9.76212			  -0.14313			 -0.09986
	75.50			  9.85757			  -0.06586			 -0.09049
	75.75			  9.75053			  -0.18728			 -0.26439
	76.00			  9.64999			  -0.19561			 -0.12039
	76.25			  9.51537			  -0.32400			 -0.33794
	76.50			  9.29839			  -0.44601			 -0.27227
	76.75			  9.35926			  -0.27714			 -0.11255
	77.00			  9.28680			  -0.34143			 -0.06812
	77.25			  9.49668			  -0.28295			 -0.18715
	77.50			  9.83098			  -0.16443			 -0.23027
	77.75			  9.79680			  -0.27675			 -0.10871
	78.00			  9.76202			  -0.10691			 0.07289
	78.25			  9.89155			  0.03329			 0.10885
	78.50			  9.79560			  -0.03023			 0.14782
	78.75			  9.89594			  -0.04301			 0.32416
	79.00			  9.89334			  0.11076			 0.25438
	79.25			  9.88005			  0.05537			 -0.08063
	79.50			  9.97560			  -0.10401			 0.01316
	79.75			  10.00138			  0.08152			 0.03227
	80.00			  9.84747			  0.27033			 -0.06334
	80.25			  9.96051			  -0.07031			 0.01521
	80.50			  10.12491			  0.00560			 0.12188
	80.75			  10.17518			  -0.00989			 0.08223
	81.00			  10.15659			  0.08539			 0.03354
	81.25			  9.95011			  -0.16075			 0.04601
	81.50			  9.95781			  0.18280			 -0.17639
	81.75			  9.81979			  -0.20355			 -0.37621
	82.00			  9.99618			  -0.44155			 -0.23475
	82.25			  10.06614			  -0.40437			 -0.14257
	82.50			  9.96460			  -0.59164			 -0.21660
	82.75			  10.08183			  -0.48009			 -0.39663
	83.00			  10.03536			  -0.47816			 -0.40981
	83.25			  9.91213			  -0.53645			 -0.33626
	83.50			  9.86316			  -0.65109			 -0.38663
	83.75			  10.04146			  -0.68053			 -0.02302
	84.00			  10.15799			  -0.59590			 0.04777
	84.25			  9.76352			  -0.57673			 0.04668
	84.50			  9.54275			  -0.53083			 0.11684
	84.75			  9.63979			  -0.49636			 0.05098
	85.00			  9.75323			  -0.47719			 0.05258
	85.25			  9.88335			  -0.52057			 -0.16363
	85.50			  9.81359			  -0.38598			 -0.00155
	85.75			  9.95731			  -0.35557			 0.14267
	86.00			  10.10502			  -0.00641			 -0.06323
	86.25			  10.00918			  0.09159			 0.13995
	86.50			  10.02037			  0.09681			 0.00308
	86.75			  10.15109			  0.15549			 0.01577
	87.00			  10.26972			  0.05498			 0.17011
	87.25			  10.20916			  0.06312			 0.05161
	87.50			  10.23774			  0.16576			 0.17806
	87.75			  10.07874			  -0.22137			 0.10018
	88.00			  10.08243			  -0.18341			 0.17231
	88.25			  10.06594			  -0.24209			 0.00181
	88.50			  9.91473			  -0.15320			 -0.16000
	88.75			  9.85837			  -0.23279			 -0.18909
	89.00			  10.08203			  -0.06760			 -0.09456
	89.25			  10.12111			  -0.04436			 -0.14731
	89.50			  10.22905			  -0.11234			 0.09753
	89.75			  10.19347			  0.03407			 0.15223
	90.00			  10.20436			  0.02439			 0.02443
	90.25			  10.08293			  -0.20277			 -0.02608
	90.50			  10.28711			  -0.10885			 0.13901
	90.75			  10.16059			  -0.05772			 -0.01115
	91.00			  10.08943			  -0.11330			 0.19442
	91.25			  10.25044			  -0.03119			 0.13961
	91.50			  10.46551			  -0.14022			 0.19994
	91.75			  10.20876			  -0.04184			 0.39991
	92.00			  10.25613			  -0.12202			 0.39868
	92.25			  10.04106			  -0.00524			 0.43187
	92.50			  10.01877			  0.08752			 0.24448
	92.75			  9.99748			  -0.21265			 0.23687
	93.00			  9.81679			  0.02419			 0.43560
	93.25			  9.83568			  -0.05308			 0.78603
	93.50			  9.84967			  -0.15049			 0.57606
	93.75			  9.95361			  -0.17256			 0.29627
	94.00			  9.93292			  -0.27985			 0.15395
	94.25			  10.10722			  -0.24615			 0.17329
	94.50			  10.17188			  -0.28217			 -0.06995
	94.75			  10.07514			  0.01955			 0.02828
	95.00			  10.19577			  -0.11214			 0.09970
	95.25			  10.05745			  -0.45589			 -0.00547
	95.50			  10.05555			  -0.13325			 0.41566
	95.75			  10.04376			  -0.13771			 0.33793
	96.00			  10.25813			  -0.09549			 0.38602
	96.25			  10.24264			  -0.17082			 0.13155
	96.50			  10.09303			  -0.17605			 0.07860
	96.75			  10.15029			  -0.15688			 0.16492
	97.00			  10.38296			  -0.13480			 0.04078
	97.25			  10.44472			  -0.13848			 0.19793
	97.50			  10.41874			  -0.28837			 0.33293
	97.75			  10.29701			  -0.15746			 0.39532
	98.00			  10.27732			  -0.24189			 0.19188
	98.25			  10.12111			  -0.15940			 0.16660
	98.50			  10.27402			  -0.23628			 0.18620
	98.75			  10.21685			  -0.22524			 0.32352
	99.00			  10.27162			  -0.18205			 0.52106
	99.25			  10.11881			  -0.11447			 0.59073
	99.50			  10.06924			  -0.05850			 0.64725
	99.75			  10.14650			  -0.08619			 0.59846
	100.00			  10.09723			  -0.15049			 0.41525
	100.25			  9.94082			  -0.06237			 0.64229
	100.50			  9.82069			  -0.31161			 0.49425
	100.75			  9.89175			  -0.12957			 0.51583
	101.00			  9.92483			  -0.26339			 0.37068
	101.25			  9.93652			  -0.22369			 0.23519
	101.50			  10.09902			  -0.30386			 0.39020
	101.75			  10.23125			  -0.42045			 0.20853
	102.00			  10.01437			  -0.16230			 0.14151
	102.25			  9.96710			  -0.29922			 0.12979
	102.50			  9.92023			  -0.09607			 0.06274
	102.75			  9.99708			  0.06505			 0.03649
	103.00			  9.87346			  0.21437			 -0.07925
	103.25			  9.83768			  0.15588			 -0.13073
	103.50			  10.02247			  0.15917			 -0.07693
	103.75			  9.79150			  -0.00602			 -0.02717
	104.00			  9.97260			  -0.03817			 0.28051
	104.25			  10.13820			  -0.23841			 0.30254
	104.50			  9.94551			  -0.09839			 0.19367
	104.75			  10.03956			  -0.10711			 0.13897
	105.00			  10.14090			  0.10011			 -0.07089
	105.25			  10.00878			  -0.04107			 -0.05894
	105.50			  9.92373			  -0.03003			 0.06718
	105.75			  10.00118			  0.10011			 -0.04244
	106.00			  10.06494			  0.06351			 0.32849
	106.25			  10.12591			  0.01296			 0.11138
	106.50			  9.93692			  0.09488			 0.11900
	106.75			  10.02317			  0.02148			 0.19599
	107.00			  9.97200			  0.01006			 0.01808
	107.25			  9.84567			  0.09681			 -0.04979
	107.50			  9.99888			  0.15956			 -0.13297
	107.75			  9.68787			  0.06486			 -0.04636
	108.00			  9.55684			  -0.09917			 0.01428
	108.25			  9.38794			  0.06409			 0.08081
	108.50			  9.42002			  -0.08406			 0.01980
	108.75			  9.56054			  -0.15649			 0.03813
	109.00			  9.68597			  -0.10168			 -0.19749
	109.25			  9.39354			  0.08810			 -0.34183
	109.50			  9.63999			  0.13690			 -0.25988
	109.75			  9.49888			  0.10785			 -0.14780
	110.00			  9.46600			  -0.09607			 -0.18883
	110.25			  9.47689			  0.02787			 -0.09534
	110.50			  9.52676			  0.06273			 -0.21821
	110.75			  9.37955			  0.06815			 -0.28343
	111.00			  9.23593			  0.11599			 -0.22146
	111.25			  9.47079			  0.44540			 -0.37785
	111.50			  9.38364			  0.49110			 -0.25245
	111.75			  9.49958			  0.36542			 -0.38629
	112.00			  9.72005			  0.50272			 -0.33735
	112.25			  9.61351			  0.54320			 -0.23998
	112.50			  9.67857			  0.70064			 -0.18274
	112.75			  9.84497			  0.84627			 -0.06704
	113.00			  9.86086			  0.72252			 -0.05942
	113.25			  10.01837			  0.51918			 0.08753
	113.50			  9.87795			  0.44540			 0.11527
	113.75			  9.97630			  0.58057			 0.08783
	114.00			  9.99928			  0.57960			 -0.11864
	114.25			  10.02837			  0.55695			 -0.05834
	114.50			  10.15279			  0.70200			 0.07035
	114.75			  10.05165			  0.53177			 0.30022
	115.00			  9.89454			  0.50543			 0.17855
	115.25			  9.82279			  0.64797			 0.08383
	115.50			  9.65878			  0.70355			 0.03720
	115.75			  9.59902			  0.70277			 0.14532
	116.00			  9.61791			  0.68844			 0.07704
	116.25			  9.46430			  0.82865			 0.25143
	116.50			  9.55244			  0.77365			 0.16873
	116.75			  9.69936			  0.63867			 0.14555
	117.00			  9.69146			  0.49827			 0.17097
	117.25			  9.76702			  0.49672			 0.15439
	117.50			  9.54955			  0.38091			 0.05594
	117.75			  9.39224			  0.31023			 -0.03303
	118.00			  9.62170			  0.58793			 -0.04427
	118.25			  9.62680			  0.52887			 0.14872
	118.50			  9.55464			  0.51918			 0.05792
	118.75			  9.46000			  0.47735			 0.14816
	119.00			  9.35156			  0.27169			 0.15652
	119.25			  9.33287			  0.19558			 0.19580
	119.50			  9.44980			  0.14949			 -0.01399
	119.75			  9.48748			  0.26510			 0.00789
	120.00			  9.41692			  0.20894			 0.06106
	120.25			  9.52736			  0.33366			 -0.15743
	120.50			  9.47779			  0.46903			 -0.07040
	120.75			  9.60991			  0.62143			 -0.01048
	121.00			  9.89974			  0.60865			 -0.03583
	121.25			  9.67177			  0.71381			 0.04896
	121.50			  9.65648			  0.72911			 -0.07563
	121.75			  9.46180			  0.42119			 -0.00913
	122.00			  9.34237			  0.59161			 0.42041
	122.25			  9.53555			  0.67275			 0.35055
	122.50			  9.58363			  0.86351			 0.39987
	122.75			  9.48468			  0.68302			 0.11908
	123.00			  9.37775			  0.40822			 0.14599
	123.25			  9.41532			  0.40667			 0.16399
	123.50			  9.39244			  0.53158			 0.27950
	123.75			  9.34816			  0.56508			 0.26741
	124.00			  9.46080			  0.53545			 0.28772
	124.25			  9.41473			  0.39195			 0.45602
	124.50			  9.41343			  0.25891			 0.24318
	124.75			  9.48678			  0.32630			 0.15189
	125.00			  9.72205			  0.32649			 0.14528
	125.25			  9.72894			  0.17331			 -0.07257
	125.50			  9.47349			  0.26278			 -0.21168
	125.75			  9.53915			  0.17467			 -0.18308
	126.00			  9.49788			  0.20759			 -0.00630
	126.25			  9.36645			  0.17583			 0.09567
	126.50			  9.63220			  0.24399			 0.16963
	126.75			  9.66598			  0.30751			 0.03085
	127.00			  9.81429			  0.41519			 0.10922
	127.25			  9.86916			  0.59277			 0.04930
	127.50			  9.70366			  0.39156			 0.10627
	127.75			  9.85427			  0.38691			 0.16996
	128.00			  9.98449			  0.42158			 0.23048
	128.25			  9.96920			  0.33424			 0.17907
	128.50			  9.90464			  0.18415			 0.10690
	128.75			  9.86596			  0.13438			 0.11258
	129.00			  9.85417			  0.30577			 -0.01093
	129.25			  9.93152			  0.35380			 -0.12763
	129.50			  9.78591			  0.25658			 -0.23662
	129.75			  9.68717			  0.23973			 -0.30468
	130.00			  9.73644			  0.20991			 -0.21567
	130.25			  9.55384			  0.43378			 -0.14873
	130.50			  9.69446			  0.49633			 -0.10355
	130.75			  9.78871			  0.02671			 -0.17568
	131.00			  9.96240			  0.10940			 -0.21399
	131.25			  9.91873			  0.24554			 -0.13708
	131.50			  9.81829			  0.10398			 -0.15556
	131.75			  9.75603			  0.29783			 0.00640
	132.00			  9.75802			  0.36852			 0.13939
	132.25			  9.66088			  0.50292			 0.21092
	132.50			  9.63360			  0.44327			 0.19434
	132.75			  9.70505			  0.37026			 0.38203
	133.00			  9.61990			  0.62279			 0.26330
	133.25			  9.59532			  0.76067			 -0.05677
	133.50			  9.84357			  0.55753			 -0.19215
	133.75			  9.86726			  0.35922			 -0.13984
	134.00			  9.61561			  0.21979			 0.05113
	134.25			  9.70765			  0.23179			 0.13457
	134.50			  9.74643			  0.12896			 0.23310
	134.75			  9.55224			  0.14891			 0.45124
	135.00			  9.57613			  0.16324			 0.57068
	135.25			  9.51267			  0.01548			 0.48574
	135.50			  9.50467			  -0.18399			 0.44956
	135.75			  9.62190			  0.09565			 0.38994
	136.00			  9.70625			  0.37452			 0.43575
	136.25			  9.47799			  0.39272			 0.35354
	136.50			  9.45930			  0.20333			 0.00453
	136.75			  9.54165			  0.25833			 0.15529
	137.00			  9.65798			  0.13864			 0.15943
	137.25			  9.43611			  -0.09471			 0.09096
	137.50			  9.30789			  -0.00137			 0.20315
	137.75			  9.30799			  0.00986			 0.10851
	138.00			  8.94120			  -0.08058			 0.12229
	138.25			  8.92831			  -0.13771			 -0.07902
	138.50			  9.20795			  -0.31316			 -0.05588
	138.75			  9.21604			  -0.59551			 -0.02235
	139.00			  9.20385			  -0.59416			 0.03716
	139.25			  9.47389			  -0.69389			 -0.14604
	139.50			  9.34237			  -0.66484			 -0.03172
	139.75			  9.46639			  -0.57847			 -0.06857
	140.00			  9.47919			  -0.40631			 -0.30863
	140.25			  9.75083			  -0.57595			 -0.01455
	140.50			  9.62620			  -0.65439			 -0.02358
	140.75			  9.50457			  -0.71752			 -0.12174
	141.00			  9.46500			  -0.64645			 -0.03430
	141.25			  9.60142			  -0.66678			 -0.32334
	141.50			  9.71475			  -0.66659			 -0.11005
	141.75			  9.90594			  -0.56608			 0.01260
	142.00			  9.90354			  -0.46111			 0.00080
	142.25			  9.97130			  -0.62243			 0.08768
	142.50			  9.95791			  -0.67181			 0.18441
	142.75			  9.73344			  -0.52328			 0.11545
	143.00			  9.83508			  -0.48416			 -0.01283
	143.25			  9.66528			  -0.50701			 0.06696
	143.50			  9.54635			  -0.44155			 0.20722
	143.75			  9.72804			  -0.55426			 0.29175
	144.00			  9.74853			  -0.40031			 0.23302
	144.25			  9.88025			  -0.14894			 0.16750
	144.50			  9.85287			  -0.23821			 -0.01085
	144.75			  9.87905			  -0.37300			 -0.16165
	145.00			  9.75243			  -0.24538			 -0.08280
	145.25			  9.67177			  -0.34608			 0.25035
	145.50			  9.55564			  -0.33620			 0.40816
	145.75			  9.52926			  -0.28101			 0.53723
	146.00			  9.60711			  -0.24306			 0.36612
	146.25			  9.72624			  -0.35693			 0.40532
	146.50			  9.70775			  -0.33795			 0.26927
	146.75			  9.70545			  -0.17276			 0.20808
	147.00			  9.73764			  -0.45937			 0.26080
	147.25			  9.67197			  -0.30444			 0.14129
	147.50			  9.65019			  -0.11795			 0.08682
	147.75			  9.61551			  0.04976			 -0.07145
	148.00			  9.64339			  0.16944			 -0.05954
	148.25			  9.71775			  -0.05831			 0.08536
	148.50			  9.78651			  -0.37029			 0.25053
	148.75			  9.83218			  -0.13925			 0.19535
	149.00			  10.00188			  0.09817			 0.02563
	149.25			  10.15439			  -0.15765			 0.04575
	149.50			  10.02847			  -0.06392			 -0.02866
	149.75			  9.74873			  0.33463			 -0.07596
	150.00			  9.67667			  0.27827			 0.01226
	150.25			  9.49718			  0.03717			 -0.07260
	150.50			  9.45970			  -0.02248			 -0.00898
	150.75			  9.62200			  -0.29302			 0.03511
	151.00			  9.74163			  -0.25603			 -0.06028
	151.25			  9.78871			  -0.22892			 -0.32006
	151.50			  9.88335			  -0.19057			 -0.16437
	151.75			  9.88685			  -0.24887			 -0.09101
	152.00			  9.64429			  -0.30057			 -0.14496
	152.25			  9.70815			  -0.19329			 -0.16034
	152.50			  9.60691			  0.09294			 -0.20492
	152.75			  9.74033			  0.08481			 -0.12771
	153.00			  9.76292			  0.11250			 -0.06181
	153.25			  9.60371			  0.24225			 0.03780
	153.50			  9.55115			  0.12548			 0.03238
	153.75			  9.76192			  0.05189			 -0.00394
	154.00			  9.95251			  -0.15572			 0.16735
	154.25			  9.95441			  -0.14255			 0.24713
	154.50			  9.75792			  -0.00079			 0.11781
	154.75			  9.77122			  -0.16385			 -0.08533
	155.00			  9.89165			  -0.14623			 -0.21522
	155.25			  9.75782			  -0.28140			 -0.20029
	155.50			  9.66838			  -0.01435			 -0.19249
	155.75			  9.65528			  -0.03836			 -0.08022
	156.00			  9.72035			  -0.13190			 -0.17576
	156.25			  9.70685			  -0.12047			 -0.19872
	156.50			  9.62350			  -0.07903			 -0.19708
	156.75			  9.76252			  0.03136			 0.22477
	157.00			  9.77331			  0.13284			 0.14711
	157.25			  9.82329			  0.36368			 0.18650
	157.50			  9.98809			  0.10572			 0.14129
	157.75			  9.95151			  0.33637			 0.11751
	158.00			  9.92473			  0.38904			 0.05848
	158.25			  10.01697			  0.41461			 0.09387
	158.50			  10.04276			  0.42507			 0.45184
	158.75			  10.17568			  0.42487			 0.35992
	159.00			  10.16598			  0.27343			 0.40051
	159.25			  10.09003			  0.15859			 0.38020
	159.50			  9.96031			  0.00289			 0.42713
	159.75			  10.09043			  0.11115			 0.29586
	160.00			  10.21835			  0.11308			 0.03996
	160.25			  10.31460			  0.15085			 -0.11595
	160.50			  10.31800			  0.35128			 0.00039
	160.75			  10.32109			  0.34412			 0.09085
	161.00			  10.19507			  0.28544			 -0.02463
	161.25			  10.08613			  0.26859			 -0.20921
	161.50			  10.12181			  0.15085			 -0.00925
	161.75			  9.92173			  0.23489			 -0.02526
	162.00			  10.19187			  0.38653			 -0.00533
	162.25			  10.21865			  0.45450			 -0.24841
	162.50			  10.39095			  0.28718			 -0.23042
	162.75			  10.24364			  0.27479			 -0.16516
	163.00			  10.46081			  0.27866			 -0.28978
	163.25			  10.45022			  0.07726			 -0.38857
	163.50			  10.39005			  0.00889			 -0.20846
	163.75			  10.29041			  -0.05114			 -0.09739
	164.00			  10.28891			  -0.02635			 -0.00010
	164.25			  10.17738			  0.20701			 -0.06301
	164.50			  10.25243			  0.09856			 0.06121
	164.75			  10.32329			  -0.00834			 -0.06028
	165.00			  10.46791			  -0.22446			 -0.02806
	165.25			  10.58054			  -0.06625			 0.00192
	165.50			  10.42014			  -0.09549			 -0.07843
	165.75			  10.36817			  -0.00776			 -0.20141
	166.00			  10.51018			  0.09236			 -0.14671
	166.25			  10.47890			  -0.21924			 0.22809
	166.50			  10.34198			  -0.06218			 0.13808
	166.75			  10.31969			  -0.08697			 0.18116
	167.00			  10.45282			  -0.29864			 0.21480