--------------TurbSim v2.00.* User Time Series Input File-----------------------
     Time series input from low-res turbsim run
--------------------------------------------------------------------------------
          3 nComp - Number of velocity components in the file
          1 nPoints - Number of time series points contained in this file (-)
          1 RefPtID - Index of the reference point (1-nPoints)
     Pointyi Pointzi ! nPoints listed in order of increasing height
       (m)     (m)
       -0.56486   94.00000
--------Time Series-------------------------------------------------------------
Elapsed Time         Point01u             Point01v           Point01w
         (s)            (m/s)                (m/s)              (m/s)
	0.00			  10.18766			  0.01642			 0.04410
	0.25			  10.17584			  0.00433			 0.01783
	0.50			  10.19470			  0.03535			 -0.08063
	0.75			  10.12001			  -0.09117			 -0.00616
	1.00			  10.12251			  0.01782			 -0.10806
	1.25			  10.05736			  0.03868			 -0.07636
	1.50			  10.01728			  0.09791			 -0.09594
	1.75			  10.09145			  0.04604			 -0.00414
	2.00			  10.07607			  0.07635			 -0.04961
	2.25			  10.05781			  0.03692			 -0.13647
	2.50			  10.05607			  0.07355			 -0.10201
	2.75			  10.05827			  0.06286			 0.07809
	3.00			  9.97736			  -0.03773			 0.11797
	3.25			  10.02471			  -0.19106			 0.06597
	3.50			  9.95372			  -0.23487			 0.14078
	3.75			  10.07228			  -0.27780			 0.08459
	4.00			  10.14932			  -0.15373			 -0.03808
	4.25			  10.06213			  -0.27097			 -0.07303
	4.50			  10.02721			  -0.26063			 -0.14697
	4.75			  10.13273			  -0.23382			 -0.17551
	5.00			  10.05675			  -0.28604			 -0.19507
	5.25			  10.12592			  -0.41414			 0.17790
	5.50			  10.15925			  -0.42991			 0.26921
	5.75			  10.24265			  -0.33756			 0.36688
	6.00			  10.12667			  -0.27903			 0.36656
	6.25			  10.02668			  -0.32003			 0.25839
	6.50			  10.04266			  -0.41747			 0.36287
	6.75			  10.09046			  -0.44743			 0.27959
	7.00			  10.22319			  -0.26676			 0.21069
	7.25			  10.28644			  -0.26028			 0.28663
	7.50			  10.13682			  -0.40134			 0.31938
	7.75			  10.17190			  -0.21507			 0.29584
	8.00			  10.31833			  -0.20298			 0.25806
	8.25			  10.23387			  -0.27465			 0.27327
	8.50			  10.22637			  -0.40362			 0.07243
	8.75			  10.15561			  -0.36489			 -0.06690
	9.00			  10.17781			  -0.26256			 0.07924
	9.25			  10.17122			  -0.24889			 0.08508
	9.50			  10.22781			  -0.21752			 -0.04743
	9.75			  10.18334			  -0.26851			 -0.05431
	10.00			  10.06410			  -0.26834			 -0.08953
	10.25			  10.22591			  -0.22558			 -0.16749
	10.50			  10.32311			  -0.25923			 -0.14094
	10.75			  10.30159			  -0.16285			 -0.20186
	11.00			  10.36258			  -0.13411			 -0.31625
	11.25			  10.24728			  -0.09766			 -0.33864
	11.50			  10.17758			  -0.25940			 -0.27422
	11.75			  10.16879			  -0.19982			 -0.13507
	12.00			  10.19281			  -0.26904			 -0.20096
	12.25			  10.21909			  -0.41589			 -0.33311
	12.50			  10.40151			  -0.55100			 -0.21611
	12.75			  10.36250			  -0.63564			 -0.05350
	13.00			  10.39909			  -0.52401			 -0.10201
	13.25			  10.28599			  -0.57886			 -0.10079
	13.50			  10.39879			  -0.48984			 -0.16879
	13.75			  10.38954			  -0.43797			 -0.21872
	14.00			  10.48507			  -0.41449			 -0.24902
	14.25			  10.45250			  -0.36332			 -0.22686
	14.50			  10.41810			  -0.38242			 -0.16162
	14.75			  10.30606			  -0.32477			 -0.17513
	15.00			  10.32356			  -0.32074			 -0.12835
	15.25			  10.31652			  -0.42921			 -0.21537
	15.50			  10.23326			  -0.35018			 -0.15193
	15.75			  10.32470			  -0.31390			 -0.08337
	16.00			  10.30470			  -0.50281			 -0.02509
	16.25			  10.27773			  -0.52138			 0.03293
	16.50			  10.43719			  -0.51858			 -0.08203
	16.75			  10.35091			  -0.51104			 -0.06854
	17.00			  10.34614			  -0.47074			 -0.12831
	17.25			  10.29068			  -0.45059			 -0.10021
	17.50			  10.27637			  -0.35946			 -0.05175
	17.75			  10.23417			  -0.37558			 -0.11473
	18.00			  10.25887			  -0.55450			 -0.09810
	18.25			  10.30553			  -0.54294			 -0.07288
	18.50			  10.24682			  -0.63862			 -0.19957
	18.75			  10.27606			  -0.73745			 -0.05251
	19.00			  10.17144			  -0.78809			 -0.03475
	19.25			  10.10039			  -0.68716			 -0.06254
	19.50			  10.11402			  -0.66928			 0.07485
	19.75			  10.10577			  -0.77232			 0.12847
	20.00			  10.06698			  -0.67068			 0.02484
	20.25			  10.02198			  -0.67506			 0.00895
	20.50			  10.06122			  -0.71607			 -0.09324
	20.75			  10.12417			  -0.56326			 -0.08270
	21.00			  10.00774			  -0.57238			 -0.07240
	21.25			  10.04516			  -0.52646			 0.01650
	21.50			  10.10864			  -0.58850			 0.07245
	21.75			  10.03554			  -0.52611			 0.20094
	22.00			  10.04175			  -0.63949			 0.24877
	22.25			  10.05872			  -0.56326			 0.20287
	22.50			  9.87259			  -0.61268			 0.17239
	22.75			  9.86070			  -0.69346			 0.10781
	23.00			  9.87448			  -0.68383			 0.15960
	23.25			  9.91070			  -0.69890			 -0.04772
	23.50			  9.88933			  -0.69907			 -0.00009
	23.75			  9.91062			  -0.65596			 -0.02882
	24.00			  9.93471			  -0.66508			 -0.04536
	24.25			  9.90009			  -0.64037			 0.06849
	24.50			  9.97615			  -0.78336			 -0.01484
	24.75			  10.07501			  -0.72606			 -0.07449
	25.00			  10.13251			  -0.60059			 -0.07088
	25.25			  10.13092			  -0.52313			 0.06218
	25.50			  10.05471			  -0.54574			 -0.00843
	25.75			  10.00531			  -0.46513			 0.00022
	26.00			  9.97819			  -0.47442			 0.06209
	26.25			  9.97069			  -0.45900			 -0.00650
	26.50			  9.93092			  -0.49737			 -0.25801
	26.75			  9.98395			  -0.41344			 -0.28784
	27.00			  9.97403			  -0.34334			 -0.11489
	27.25			  9.91979			  -0.10169			 0.06166
	27.50			  9.85623			  -0.12237			 0.05876
	27.75			  9.71616			  -0.08907			 0.13919
	28.00			  9.78085			  0.10124			 0.12208
	28.25			  9.77570			  0.03500			 0.13674
	28.50			  9.81517			  -0.03948			 0.13364
	28.75			  9.95835			  -0.06804			 0.15018
	29.00			  9.91388			  0.09493			 0.09632
	29.25			  9.85600			  0.20743			 0.18680
	29.50			  9.84418			  0.09861			 0.18633
	29.75			  9.87486			  0.08178			 0.05867
	30.00			  9.89236			  0.09510			 0.11439
	30.25			  9.84464			  0.20918			 0.11039
	30.50			  9.79873			  0.22338			 0.00539
	30.75			  9.73494			  0.27174			 -0.07092
	31.00			  9.70532			  0.20603			 0.00627
	31.25			  9.74313			  0.21023			 -0.00776
	31.50			  9.83517			  0.18220			 -0.01063
	31.75			  9.80115			  0.03079			 0.05847
	32.00			  9.79934			  0.23091			 0.06269
	32.25			  9.88365			  0.36917			 -0.02758
	32.50			  9.85426			  0.17378			 -0.12438
	32.75			  9.91585			  0.20060			 -0.22443
	33.00			  9.89645			  0.18552			 -0.22744
	33.25			  9.84305			  0.27069			 -0.22142
	33.50			  9.95842			  0.37671			 -0.08542
	33.75			  10.05433			  0.51637			 -0.03626
	34.00			  10.12910			  0.49131			 0.04646
	34.25			  10.11478			  0.44505			 0.08236
	34.50			  10.15652			  0.18588			 -0.06045
	34.75			  10.17607			  0.20060			 -0.18821
	35.00			  10.06130			  0.20620			 -0.03196
	35.25			  10.01198			  0.16134			 -0.06413
	35.50			  10.02440			  0.12542			 -0.00065
	35.75			  10.09607			  0.11596			 0.00852
	36.00			  10.21841			  0.04726			 0.01045
	36.25			  10.19682			  -0.04947			 0.00272
	36.50			  10.29530			  0.03517			 0.00040
	36.75			  10.20940			  -0.03878			 0.16461
	37.00			  10.19531			  0.04253			 0.19527
	37.25			  10.15675			  0.13611			 0.21944
	37.50			  10.10773			  0.06899			 0.13211
	37.75			  10.10410			  0.18237			 0.02288
	38.00			  10.17887			  0.15538			 0.02724
	38.25			  10.15554			  0.20743			 -0.01095
	38.50			  10.15523			  0.01467			 -0.11282
	38.75			  10.11842			  0.06917			 -0.10904
	39.00			  10.00789			  0.12892			 -0.04712
	39.25			  10.05312			  0.09282			 -0.10140
	39.50			  10.04622			  0.11964			 -0.05653
	39.75			  10.25917			  0.02063			 0.00922
	40.00			  10.44182			  -0.05858			 0.18693
	40.25			  10.42295			  -0.13428			 0.09702
	40.50			  10.36992			  -0.14357			 0.07587
	40.75			  10.37030			  -0.05841			 0.12795
	41.00			  10.35750			  -0.12307			 0.19891
	41.25			  10.32765			  -0.13025			 0.11365
	41.50			  10.32265			  -0.03387			 0.05635
	41.75			  10.36470			  0.01344			 0.17003
	42.00			  10.39863			  -0.00250			 0.21292
	42.25			  10.33046			  0.04586			 0.22391
	42.50			  10.26765			  -0.01635			 0.03381
	42.75			  10.24258			  0.02150			 0.00166
	43.00			  10.38727			  0.05970			 -0.05624
	43.25			  10.41886			  0.08091			 -0.08738
	43.50			  10.22599			  0.23599			 0.04493
	43.75			  10.15569			  0.18956			 -0.06107
	44.00			  10.20697			  0.12682			 -0.03646
	44.25			  10.35250			  0.05550			 -0.03163
	44.50			  10.37773			  0.21199			 -0.06474
	44.75			  10.28977			  0.27227			 0.04320
	45.00			  10.27038			  0.32624			 -0.03630
	45.25			  10.37947			  0.27262			 0.04257
	45.50			  10.41492			  0.22828			 0.09562
	45.75			  10.46469			  0.19131			 -0.08450
	46.00			  10.44810			  0.15170			 -0.10212
	46.25			  10.39689			  0.15153			 -0.20586
	46.50			  10.32424			  0.11999			 -0.13085
	46.75			  10.20122			  0.29470			 -0.09259
	47.00			  10.22470			  0.32834			 -0.09805
	47.25			  10.17258			  0.17781			 0.02994
	47.50			  10.15099			  0.00100			 0.03183
	47.75			  10.10743			  0.08406			 0.06849
	48.00			  10.24319			  0.20340			 0.08780
	48.25			  10.32250			  0.07250			 0.07632
	48.50			  10.33265			  0.01940			 0.04410
	48.75			  10.30826			  0.10597			 -0.09018
	49.00			  10.27667			  0.00608			 -0.02902
	49.25			  10.14789			  -0.01197			 0.06058
	49.50			  10.21803			  0.12419			 0.05487
	49.75			  10.16281			  0.09475			 0.10819
	50.00			  10.14811			  -0.01880			 0.07182
	50.25			  10.15599			  -0.10975			 0.05950
	50.50			  10.17311			  -0.15882			 -0.00346
	50.75			  10.30152			  -0.18177			 -0.02733
	51.00			  10.23440			  -0.24959			 -0.07940
	51.25			  10.19410			  -0.29165			 0.00699
	51.50			  10.24993			  -0.27395			 0.02268
	51.75			  10.26091			  -0.34509			 -0.11871
	52.00			  10.19735			  -0.45076			 0.01014
	52.25			  10.27205			  -0.30023			 -0.13656
	52.50			  10.20728			  -0.19229			 0.02088
	52.75			  10.08895			  -0.23610			 0.00629
	53.00			  10.07501			  -0.14234			 -0.14099
	53.25			  10.07008			  -0.23767			 -0.17576
	53.50			  10.07948			  -0.25274			 -0.10677
	53.75			  10.00494			  -0.11378			 0.01382
	54.00			  9.93615			  -0.21682			 -0.03210
	54.25			  9.88751			  -0.19334			 0.03102
	54.50			  9.88524			  -0.06945			 -0.05224
	54.75			  9.95069			  -0.08381			 0.12644
	55.00			  9.80759			  -0.04001			 0.16194
	55.25			  9.77691			  -0.10309			 0.04963
	55.50			  9.85979			  -0.19404			 0.08708
	55.75			  9.82577			  -0.11360			 0.08654
	56.00			  9.89161			  -0.05683			 0.24102
	56.25			  9.88335			  0.05305			 0.16434
	56.50			  9.87547			  0.03517			 0.06975
	56.75			  9.88380			  0.03394			 0.02412
	57.00			  9.85797			  -0.04263			 0.08223
	57.25			  9.96797			  0.00153			 -0.00187
	57.50			  9.91698			  -0.05963			 -0.08268
	57.75			  9.95888			  -0.09415			 -0.02839
	58.00			  10.02887			  -0.06541			 0.00573
	58.25			  10.01153			  -0.05455			 -0.03459
	58.50			  10.06554			  -0.01863			 0.00555
	58.75			  10.05463			  -0.13306			 0.05779
	59.00			  9.98016			  -0.22944			 -0.03956
	59.25			  9.99600			  -0.20490			 -0.01320
	59.50			  9.90812			  -0.09345			 0.07306
	59.75			  9.95865			  -0.15619			 0.16308
	60.00			  10.01842			  -0.14602			 0.02448
	60.25			  10.10054			  -0.00513			 0.11412
	60.50			  9.99425			  0.00889			 0.08546
	60.75			  9.99448			  0.03149			 0.14795
	61.00			  9.94282			  -0.08311			 0.09585
	61.25			  9.97804			  -0.20560			 -0.07452
	61.50			  9.96191			  -0.08013			 0.00495
	61.75			  9.91426			  -0.08487			 -0.01452
	62.00			  9.95850			  -0.06121			 -0.06413
	62.25			  10.09630			  0.07933			 -0.08245
	62.50			  10.14152			  0.04831			 0.00546
	62.75			  10.20031			  -0.10554			 -0.00371
	63.00			  10.10402			  -0.10765			 -0.07373
	63.25			  10.13448			  -0.09731			 -0.01933
	63.50			  10.11811			  -0.27412			 -0.07616
	63.75			  10.15485			  -0.24311			 -0.07097
	64.00			  10.13493			  -0.24749			 0.03196
	64.25			  10.04645			  -0.26519			 -0.03788
	64.50			  10.07698			  -0.23469			 -0.02212
	64.75			  10.16198			  -0.36717			 0.02338
	65.00			  10.11433			  -0.32880			 0.01992
	65.25			  10.04865			  -0.36542			 0.05788
	65.50			  10.02834			  -0.27763			 0.00717
	65.75			  10.05471			  -0.19965			 -0.00452
	66.00			  9.95342			  -0.20928			 0.03273
	66.25			  9.92213			  -0.24906			 -0.11837
	66.50			  9.82206			  -0.27763			 -0.15452
	66.75			  9.77555			  -0.21226			 -0.19975
	67.00			  9.86077			  -0.24118			 -0.08086
	67.25			  9.96698			  -0.02406			 -0.08650
	67.50			  10.02077			  0.05585			 0.03394
	67.75			  10.07107			  0.04779			 -0.05332
	68.00			  9.86123			  -0.04737			 -0.01405
	68.25			  9.87130			  -0.13568			 0.01582
	68.50			  9.91267			  -0.15444			 0.03563
	68.75			  9.85873			  -0.16968			 0.02617
	69.00			  10.02365			  -0.13218			 -0.05339
	69.25			  10.07425			  -0.21209			 -0.08256
	69.50			  10.13554			  -0.17459			 -0.13959
	69.75			  10.19031			  -0.22418			 -0.11325
	70.00			  10.15092			  -0.21629			 -0.00618
	70.25			  10.13410			  -0.20087			 -0.03379
	70.50			  10.00812			  -0.31565			 -0.08758
	70.75			  9.94751			  -0.06244			 -0.11246
	71.00			  9.90918			  0.05410			 -0.06775
	71.25			  9.90395			  -0.07453			 -0.20163
	71.50			  10.00236			  -0.04526			 -0.15764
	71.75			  10.13326			  -0.11010			 -0.13402
	72.00			  10.21849			  -0.21296			 -0.23994
	72.25			  10.25591			  -0.17792			 -0.17408
	72.50			  10.15167			  -0.09170			 -0.13271
	72.75			  10.08524			  0.00678			 -0.10059
	73.00			  10.06342			  0.06724			 -0.01234
	73.25			  10.01751			  0.00959			 -0.09992
	73.50			  10.03266			  0.02518			 -0.04741
	73.75			  10.10470			  0.06426			 -0.11437
	74.00			  10.14751			  0.05970			 -0.17156
	74.25			  10.26273			  0.16415			 -0.24131
	74.50			  10.32076			  0.10877			 -0.24866
	74.75			  10.18243			  0.10264			 -0.21404
	75.00			  10.26606			  0.02606			 -0.25136
	75.25			  10.15872			  -0.03054			 -0.30005
	75.50			  10.04918			  -0.08732			 -0.36939
	75.75			  10.10683			  -0.12272			 -0.14996
	76.00			  10.20826			  -0.11045			 -0.10347
	76.25			  10.24614			  -0.28884			 -0.14831
	76.50			  10.19394			  -0.36227			 -0.09533
	76.75			  10.15432			  -0.25765			 -0.09805
	77.00			  10.32008			  -0.23680			 -0.08782
	77.25			  10.19637			  -0.30076			 -0.12006
	77.50			  10.25462			  -0.31338			 0.02695
	77.75			  10.37273			  -0.33300			 0.10232
	78.00			  10.28470			  -0.33283			 0.09592
	78.25			  10.30576			  -0.24643			 -0.02005
	78.50			  10.39962			  -0.25379			 -0.04129
	78.75			  10.48295			  -0.26834			 0.04644
	79.00			  10.57227			  -0.23960			 0.10030
	79.25			  10.51818			  -0.41011			 0.01072
	79.50			  10.49318			  -0.34509			 0.05024
	79.75			  10.51840			  -0.32214			 -0.00400
	80.00			  10.40750			  -0.36665			 0.00025
	80.25			  10.22606			  -0.32827			 -0.07677
	80.50			  10.24129			  -0.34141			 -0.04021
	80.75			  10.12137			  -0.36893			 -0.04341
	81.00			  10.08387			  -0.31811			 -0.02228
	81.25			  10.23379			  -0.28534			 -0.08760
	81.50			  10.21864			  -0.34579			 -0.11943
	81.75			  10.24137			  -0.34772			 -0.25286
	82.00			  10.14145			  -0.33388			 -0.40698
	82.25			  10.23765			  -0.24573			 -0.43555
	82.50			  10.23266			  -0.22979			 -0.41633
	82.75			  10.35492			  -0.14234			 -0.29845
	83.00			  10.41295			  -0.06541			 -0.10336
	83.25			  10.26902			  -0.12955			 -0.18547
	83.50			  10.25894			  -0.08592			 -0.26642
	83.75			  10.30940			  -0.18282			 -0.16706
	84.00			  10.30530			  -0.13411			 -0.27211
	84.25			  10.27947			  -0.18983			 -0.32351
	84.50			  10.10955			  -0.36051			 -0.18603
	84.75			  10.16417			  -0.30829			 -0.21762
	85.00			  10.14364			  -0.21629			 -0.28058
	85.25			  10.24470			  -0.17178			 -0.31236
	85.50			  10.21796			  -0.23031			 -0.27975
	85.75			  10.23228			  -0.29112			 -0.20865
	86.00			  10.19175			  -0.29830			 -0.17075
	86.25			  10.14796			  -0.36016			 -0.10810
	86.50			  10.20500			  -0.42921			 -0.04644
	86.75			  10.28758			  -0.49089			 -0.09603
	87.00			  10.17894			  -0.45935			 0.09805
	87.25			  10.08402			  -0.45900			 -0.02637
	87.50			  10.09508			  -0.55888			 0.01337
	87.75			  10.10008			  -0.48300			 0.08059
	88.00			  10.11463			  -0.47792			 -0.00528
	88.25			  10.31712			  -0.57343			 -0.01769
	88.50			  10.38288			  -0.60304			 0.02889
	88.75			  10.38742			  -0.57535			 -0.17934
	89.00			  10.31917			  -0.38154			 -0.17689
	89.25			  10.27652			  -0.36016			 -0.11282
	89.50			  10.22758			  -0.31951			 0.00272
	89.75			  10.20720			  -0.34439			 -0.10142
	90.00			  10.22349			  -0.56431			 -0.03066
	90.25			  10.37803			  -0.62985			 0.13265
	90.50			  10.20629			  -0.58394			 0.11613
	90.75			  10.19281			  -0.46338			 0.07924
	91.00			  10.17879			  -0.54188			 0.13114
	91.25			  10.23765			  -0.62565			 0.01533
	91.50			  10.33114			  -0.56502			 0.19491
	91.75			  10.38007			  -0.59148			 0.25498
	92.00			  10.29243			  -0.63686			 0.29533
	92.25			  10.22978			  -0.53119			 0.22722
	92.50			  10.11455			  -0.43955			 0.30881
	92.75			  10.08152			  -0.45900			 0.22641
	93.00			  10.14008			  -0.56344			 0.27892
	93.25			  10.17932			  -0.53785			 0.39275
	93.50			  10.20682			  -0.66473			 0.34548
	93.75			  10.18440			  -0.55240			 0.35741
	94.00			  10.19872			  -0.46320			 0.42703
	94.25			  10.10493			  -0.38102			 0.35564
	94.50			  9.98607			  -0.32932			 0.44685
	94.75			  9.96698			  -0.38522			 0.52047
	95.00			  9.92032			  -0.36244			 0.50107
	95.25			  9.94721			  -0.53295			 0.25421
	95.50			  9.95009			  -0.43972			 0.25882
	95.75			  10.02827			  -0.22576			 0.13903
	96.00			  10.19538			  -0.22260			 -0.01639
	96.25			  10.29303			  -0.33423			 0.04473
	96.50			  10.35326			  -0.28744			 0.08708
	96.75			  10.30106			  -0.22698			 0.25003
	97.00			  10.36288			  -0.26659			 0.18019
	97.25			  10.31932			  -0.15093			 0.17010
	97.50			  10.20160			  -0.22768			 0.13105
	97.75			  10.18531			  -0.30128			 0.11563
	98.00			  10.22319			  -0.28078			 0.11235
	98.25			  10.11554			  -0.27009			 0.11565
	98.50			  10.32197			  -0.28867			 0.13955
	98.75			  10.29599			  -0.36595			 0.11219
	99.00			  10.25720			  -0.52576			 0.07072
	99.25			  10.30152			  -0.43990			 0.16077
	99.50			  10.32947			  -0.42097			 0.13991
	99.75			  10.21894			  -0.38277			 0.13528
	100.00			  10.29387			  -0.26448			 0.14020
	100.25			  10.28962			  -0.32617			 0.09281
	100.50			  10.31174			  -0.21174			 -0.00029
	100.75			  10.35189			  -0.16144			 0.06393
	101.00			  10.34477			  -0.26501			 0.02416
	101.25			  10.40091			  -0.32845			 -0.01762
	101.50			  10.48878			  -0.43849			 0.00546
	101.75			  10.41083			  -0.50684			 0.02331
	102.00			  10.46022			  -0.51350			 0.05993
	102.25			  10.49643			  -0.56046			 0.05323
	102.50			  10.51871			  -0.51385			 0.08627
	102.75			  10.53030			  -0.43639			 0.09443
	103.00			  10.47280			  -0.39206			 0.05141
	103.25			  10.34402			  -0.41887			 -0.06265
	103.50			  10.39773			  -0.47407			 -0.02374
	103.75			  10.41621			  -0.38242			 0.04455
	104.00			  10.43515			  -0.33370			 0.10124
	104.25			  10.25515			  -0.30111			 0.04440
	104.50			  10.17538			  -0.26151			 -0.06085
	104.75			  10.21925			  -0.16074			 -0.13404
	105.00			  10.17554			  -0.18580			 -0.09518
	105.25			  10.18644			  -0.13674			 0.04455
	105.50			  10.09342			  -0.09345			 0.04251
	105.75			  10.07463			  -0.25274			 -0.01886
	106.00			  10.16978			  -0.34614			 0.15310
	106.25			  10.16720			  -0.40257			 0.09380
	106.50			  10.24235			  -0.29673			 0.04561
	106.75			  10.41773			  -0.25800			 0.01499
	107.00			  10.49803			  -0.18808			 -0.01704
	107.25			  10.54628			  -0.40117			 0.11570
	107.50			  10.56363			  -0.38365			 0.23661
	107.75			  10.56643			  -0.35508			 0.25686
	108.00			  10.54484			  -0.47144			 0.18197
	108.25			  10.40591			  -0.57080			 0.12867
	108.50			  10.35886			  -0.41922			 0.15737
	108.75			  10.38901			  -0.35508			 0.15304
	109.00			  10.32833			  -0.42237			 0.03259
	109.25			  10.37712			  -0.43394			 0.13737
	109.50			  10.50022			  -0.38522			 0.15418
	109.75			  10.35121			  -0.36314			 0.05019
	110.00			  10.30826			  -0.19281			 0.19984
	110.25			  10.31841			  -0.09030			 0.14384
	110.50			  10.18190			  0.03062			 0.16135
	110.75			  10.10523			  0.05743			 0.22555
	111.00			  10.01956			  0.14785			 0.23850
	111.25			  10.04713			  0.04236			 0.28011
	111.50			  10.16841			  0.14627			 0.26024
	111.75			  10.31720			  0.25842			 0.40167
	112.00			  10.39394			  0.33465			 0.31614
	112.25			  10.47666			  0.20410			 0.34637
	112.50			  10.50606			  0.03798			 0.36193
	112.75			  10.51151			  0.07881			 0.37135
	113.00			  10.49340			  0.13383			 0.34811
	113.25			  10.52681			  0.26526			 0.27959
	113.50			  10.59083			  0.29715			 0.23086
	113.75			  10.55189			  0.31432			 0.27705
	114.00			  10.51196			  0.34885			 0.23009
	114.25			  10.49977			  0.27805			 0.28764
	114.50			  10.54121			  0.28699			 0.29452
	114.75			  10.51712			  0.23845			 0.28699
	115.00			  10.43007			  0.08213			 0.21024
	115.25			  10.52159			  0.28786			 0.10727
	115.50			  10.50325			  0.16257			 0.14153
	115.75			  10.43507			  -0.03265			 -0.02372
	116.00			  10.38310			  -0.13463			 0.09895
	116.25			  10.47916			  -0.01372			 0.19496
	116.50			  10.46030			  -0.12044			 0.23391
	116.75			  10.34614			  -0.18773			 0.08337
	117.00			  10.44954			  -0.06769			 0.05867
	117.25			  10.35591			  -0.04158			 0.17727
	117.50			  10.45409			  -0.06051			 0.13836
	117.75			  10.46530			  -0.20701			 0.13332
	118.00			  10.40416			  -0.18195			 0.14982
	118.25			  10.31697			  -0.12167			 0.09673
	118.50			  10.29227			  -0.16215			 0.20705
	118.75			  10.23106			  -0.11851			 0.18866
	119.00			  10.26652			  -0.29112			 0.05701
	119.25			  10.37674			  -0.31320			 0.09886
	119.50			  10.37621			  -0.26536			 0.20501
	119.75			  10.35917			  -0.30181			 0.21795
	120.00			  10.31879			  -0.21454			 0.16315
	120.25			  10.48515			  -0.12692			 0.15618
	120.50			  10.39765			  -0.19965			 0.28364
	120.75			  10.35189			  -0.30584			 0.32439
	121.00			  10.48795			  -0.25958			 0.22715
	121.25			  10.36879			  -0.15549			 0.06910
	121.50			  10.38689			  -0.00356			 0.14991
	121.75			  10.31212			  0.00118			 0.12750
	122.00			  10.31924			  0.01116			 0.29613
	122.25			  10.34008			  0.15013			 0.26903
	122.50			  10.25909			  0.27665			 0.12797
	122.75			  10.16940			  0.19464			 0.07989
	123.00			  10.01319			  0.00188			 0.18478
	123.25			  10.02365			  -0.02248			 0.21550
	123.50			  9.98471			  -0.13919			 0.28575
	123.75			  9.92388			  -0.17879			 0.31603
	124.00			  10.00175			  -0.12132			 0.44654
	124.25			  9.97728			  -0.08259			 0.44036
	124.50			  9.94357			  -0.13796			 0.49925
	124.75			  9.97372			  -0.24819			 0.37384
	125.00			  9.84464			  -0.22628			 0.28141
	125.25			  9.88683			  -0.20823			 0.17401
	125.50			  9.88941			  0.00994			 0.02389
	125.75			  9.88251			  0.12629			 0.08827
	126.00			  9.83570			  0.07740			 0.14083
	126.25			  9.79471			  0.08617			 -0.03343
	126.50			  9.80979			  0.02729			 -0.03871
	126.75			  9.82691			  0.08371			 0.13993
	127.00			  9.82873			  0.09791			 0.10313
	127.25			  9.80843			  0.10211			 0.07007
	127.50			  9.67343			  0.05743			 -0.07081
	127.75			  9.59699			  0.04323			 -0.00569
	128.00			  9.71176			  0.04481			 0.08911
	128.25			  9.72790			  0.03727			 0.09821
	128.50			  9.74729			  -0.00969			 0.18797
	128.75			  9.65578			  0.01081			 0.17907
	129.00			  9.76494			  0.07197			 0.14683
	129.25			  9.86282			  0.03938			 0.10985
	129.50			  9.79744			  0.06584			 0.06564
	129.75			  9.88251			  0.22968			 0.02277
	130.00			  9.90244			  0.13260			 -0.04482
	130.25			  9.87729			  0.10807			 -0.08499
	130.50			  9.82691			  0.09563			 0.04206
	130.75			  9.78593			  -0.04404			 0.12997
	131.00			  9.82653			  0.04674			 -0.01603
	131.25			  9.81774			  0.09896			 0.10511
	131.50			  9.97880			  0.06076			 -0.04826
	131.75			  9.94130			  0.11087			 -0.11359
	132.00			  9.75464			  0.11858			 -0.08176
	132.25			  9.74290			  0.21181			 -0.06816
	132.50			  9.77752			  0.19989			 -0.16189
	132.75			  9.72343			  0.33045			 -0.04873
	133.00			  9.83055			  0.26473			 -0.06004
	133.25			  9.97425			  0.19113			 -0.21251
	133.50			  9.87501			  0.18868			 -0.15101
	133.75			  9.99380			  0.11981			 -0.05026
	134.00			  9.85297			  -0.13779			 0.00166
	134.25			  9.76578			  -0.07663			 -0.03403
	134.50			  9.68623			  -0.01337			 -0.11613
	134.75			  9.60442			  -0.00566			 -0.09520
	135.00			  9.66889			  0.12945			 -0.03309
	135.25			  9.76449			  0.03605			 0.06260
	135.50			  9.71805			  0.14645			 0.14733
	135.75			  9.75472			  0.07145			 0.14778
	136.00			  9.74797			  -0.07453			 -0.03232
	136.25			  9.81206			  -0.02196			 0.01915
	136.50			  9.82214			  -0.04071			 -0.07346
	136.75			  9.85471			  -0.00548			 -0.08616
	137.00			  9.80055			  -0.20946			 0.01960
	137.25			  9.92350			  -0.13884			 0.08328
	137.50			  9.88320			  -0.01863			 -0.03282
	137.75			  9.67449			  0.01151			 0.02576
	138.00			  9.68161			  -0.06997			 0.05734
	138.25			  9.76918			  0.03850			 0.06040
	138.50			  9.71267			  0.14469			 -0.00895
	138.75			  9.76199			  0.17554			 0.01969
	139.00			  9.63313			  0.26351			 0.02677
	139.25			  9.68025			  0.37951			 -0.10284
	139.50			  9.80297			  0.39563			 -0.10048
	139.75			  9.80623			  0.39265			 -0.04372
	140.00			  9.85191			  0.36234			 0.06303
	140.25			  9.83327			  0.33535			 0.05910
	140.50			  9.78737			  0.12051			 0.15335
	140.75			  9.85418			  0.08932			 -0.00901
	141.00			  9.95713			  0.15696			 0.07321
	141.25			  9.77926			  0.14978			 0.09652
	141.50			  9.64229			  0.08126			 -0.02549
	141.75			  9.71676			  -0.01354			 -0.10626
	142.00			  9.70328			  -0.06699			 -0.08879
	142.25			  9.74843			  -0.11360			 -0.13867
	142.50			  9.77312			  -0.10379			 -0.17792
	142.75			  9.88312			  -0.07050			 -0.23627
	143.00			  9.98100			  -0.11028			 -0.03619
	143.25			  9.92570			  -0.09678			 -0.07755
	143.50			  10.01183			  -0.01617			 -0.02875
	143.75			  9.96228			  -0.05700			 0.01218
	144.00			  10.07690			  0.07583			 -0.00531
	144.25			  10.07471			  0.04025			 -0.06467
	144.50			  10.09751			  0.14697			 -0.11954
	144.75			  10.09895			  0.11841			 -0.09077
	145.00			  10.01319			  0.07074			 -0.03781
	145.25			  10.09243			  0.10299			 0.04804
	145.50			  10.19160			  0.02851			 0.07072
	145.75			  10.16788			  -0.00951			 0.05642
	146.00			  10.21356			  0.09177			 -0.02684
	146.25			  10.27121			  0.13365			 -0.09405
	146.50			  10.26379			  0.01502			 -0.05644
	146.75			  10.22213			  -0.06384			 -0.06069
	147.00			  10.19220			  -0.08609			 -0.16668
	147.25			  10.24311			  -0.10221			 -0.00791
	147.50			  10.34818			  -0.06612			 0.02576
	147.75			  10.26697			  0.00924			 -0.04554
	148.00			  10.19849			  0.14487			 -0.03889
	148.25			  10.14895			  0.10632			 -0.17749
	148.50			  10.08387			  -0.01407			 -0.06242
	148.75			  10.11069			  -0.08294			 0.03347
	149.00			  10.22273			  -0.17266			 -0.05480
	149.25			  10.14675			  -0.11571			 -0.14771
	149.50			  10.17940			  -0.18861			 -0.17046
	149.75			  10.15357			  -0.16495			 -0.12289
	150.00			  10.08478			  -0.21069			 -0.08128
	150.25			  9.96865			  -0.17546			 -0.10500
	150.50			  10.08107			  -0.22260			 0.05091
	150.75			  10.03115			  -0.12202			 -0.09286
	151.00			  9.98971			  -0.04369			 -0.09790
	151.25			  10.02092			  -0.17949			 -0.10704
	151.50			  10.03766			  -0.15601			 -0.19793
	151.75			  10.06668			  -0.09924			 -0.31821
	152.00			  9.85638			  -0.10309			 -0.21447
	152.25			  9.84032			  0.00240			 -0.17288
	152.50			  9.81002			  -0.10344			 -0.17536
	152.75			  9.83115			  -0.13551			 -0.25889
	153.00			  9.80267			  -0.19509			 -0.25781
	153.25			  9.82858			  -0.12079			 -0.20791
	153.50			  9.90729			  -0.12903			 -0.24871
	153.75			  9.90448			  -0.10484			 -0.07348
	154.00			  10.05925			  -0.12289			 -0.07184
	154.25			  10.02213			  -0.00250			 -0.21063
	154.50			  10.02456			  -0.04071			 -0.26307
	154.75			  9.95668			  -0.14760			 -0.29054
	155.00			  9.96774			  -0.15146			 -0.31958
	155.25			  10.03660			  -0.11413			 -0.38650
	155.50			  9.99304			  -0.17354			 -0.35514
	155.75			  9.95183			  -0.12640			 -0.27694
	156.00			  9.87592			  -0.07908			 -0.21128
	156.25			  9.86047			  -0.13639			 -0.21984
	156.50			  9.73237			  -0.01687			 -0.16499
	156.75			  9.64767			  0.06601			 -0.20310
	157.00			  9.65851			  0.06041			 -0.10450
	157.25			  9.66192			  -0.03054			 -0.10212
	157.50			  9.53283			  -0.21997			 -0.05166
	157.75			  9.48003			  -0.36472			 0.00526
	158.00			  9.63676			  -0.27745			 -0.12615
	158.25			  9.68290			  -0.14970			 -0.13658
	158.50			  9.78502			  -0.28762			 -0.09933
	158.75			  9.80456			  -0.20490			 0.00106
	159.00			  9.80926			  -0.23662			 0.00389
	159.25			  9.85767			  -0.25747			 -0.02619
	159.50			  9.85206			  -0.14760			 -0.02592
	159.75			  9.73070			  -0.07908			 0.01288
	160.00			  9.73790			  -0.06541			 0.02684
	160.25			  9.71116			  -0.10046			 -0.12028
	160.50			  9.74366			  -0.04964			 -0.12692
	160.75			  9.87630			  0.01099			 -0.00827
	161.00			  9.85380			  -0.00005			 0.06852
	161.25			  9.69381			  -0.00531			 0.11653
	161.50			  9.78926			  0.05988			 0.14337
	161.75			  9.81706			  0.03885			 0.23960
	162.00			  9.91994			  -0.00075			 0.17477
	162.25			  9.85342			  0.04972			 0.05723
	162.50			  9.89501			  0.10895			 -0.10109
	162.75			  9.87229			  0.17974			 -0.01708
	163.00			  9.86721			  0.25211			 -0.09365
	163.25			  9.83714			  0.24055			 -0.07829
	163.50			  9.96032			  0.03710			 -0.08522
	163.75			  9.94524			  0.17887			 -0.08027
	164.00			  9.89054			  0.26929			 -0.02241
	164.25			  9.86850			  0.32519			 0.10628
	164.50			  9.81365			  0.30101			 -0.00910
	164.75			  9.86077			  0.11245			 -0.04051
	165.00			  9.90918			  -0.00513			 -0.03716
	165.25			  9.92001			  -0.00461			 -0.11273