--------------TurbSim v2.00.* User Time Series Input File-----------------------
     Time series input from low-res turbsim run
--------------------------------------------------------------------------------
          3 nComp - Number of velocity components in the file
          1 nPoints - Number of time series points contained in this file (-)
          1 RefPtID - Index of the reference point (1-nPoints)
     Pointyi Pointzi ! nPoints listed in order of increasing height
       (m)     (m)
       1.55883   94.00000
--------Time Series-------------------------------------------------------------
Elapsed Time         Point01u             Point01v           Point01w
         (s)            (m/s)                (m/s)              (m/s)
	0.00			  9.81544			  0.41502			 -0.01587
	0.25			  9.88343			  0.28548			 0.01848
	0.50			  9.98063			  0.25595			 -0.04043
	0.75			  9.98200			  0.28393			 -0.03963
	1.00			  10.04846			  0.29032			 0.03665
	1.25			  9.96873			  0.24645			 0.00967
	1.50			  9.91295			  0.14765			 -0.02438
	1.75			  9.86511			  -0.05201			 0.06745
	2.00			  9.87503			  -0.05046			 0.00640
	2.25			  10.03305			  -0.07222			 0.12986
	2.50			  9.85779			  -0.05616			 -0.10547
	2.75			  9.85970			  0.02036			 -0.13646
	3.00			  9.82117			  0.21035			 -0.17711
	3.25			  9.83314			  0.22641			 -0.15388
	3.50			  9.90448			  0.16285			 -0.18585
	3.75			  9.90891			  0.11777			 -0.14406
	4.00			  9.99307			  0.02329			 -0.03945
	4.25			  10.01351			  -0.17585			 -0.11321
	4.50			  10.11903			  -0.10469			 -0.06202
	4.75			  10.07196			  -0.07446			 -0.10397
	5.00			  10.13910			  0.02139			 -0.20838
	5.25			  10.19838			  0.10102			 -0.12244
	5.50			  10.21685			  0.12693			 -0.15423
	5.75			  10.27102			  0.13280			 -0.09602
	6.00			  10.20319			  0.20983			 -0.23972
	6.25			  10.24142			  0.22987			 -0.29692
	6.50			  10.17557			  0.27598			 -0.24256
	6.75			  10.10148			  0.20310			 -0.27036
	7.00			  10.07325			  0.26907			 -0.16195
	7.25			  10.08455			  0.22659			 -0.08940
	7.50			  9.95484			  0.22503			 -0.11293
	7.75			  9.81995			  0.20759			 -0.08161
	8.00			  9.69756			  0.17408			 -0.03469
	8.25			  9.68055			  0.08668			 -0.06358
	8.50			  9.63630			  0.08824			 0.04173
	8.75			  9.73823			  0.00309			 -0.01578
	9.00			  9.84230			  -0.04027			 0.02046
	9.25			  9.85352			  0.02260			 0.08142
	9.50			  9.76341			  0.01362			 0.05015
	9.75			  9.69505			  -0.00883			 -0.07380
	10.00			  9.63103			  0.10188			 -0.20964
	10.25			  9.60150			  0.21415			 -0.23093
	10.50			  9.67651			  0.19360			 -0.20444
	10.75			  9.65011			  0.19550			 -0.20612
	11.00			  9.70161			  0.23729			 -0.18158
	11.25			  9.71069			  0.10983			 -0.19345
	11.50			  9.77569			  0.15508			 -0.14084
	11.75			  9.71984			  0.15594			 -0.25290
	12.00			  9.70260			  0.28652			 -0.21414
	12.25			  9.69238			  0.39654			 -0.09143
	12.50			  9.78073			  0.39948			 -0.02396
	12.75			  9.66384			  0.43506			 0.08208
	13.00			  9.58266			  0.53178			 -0.02776
	13.25			  9.60349			  0.59603			 -0.00908
	13.50			  9.53917			  0.61693			 -0.02095
	13.75			  9.49225			  0.65752			 -0.05878
	14.00			  9.47592			  0.56062			 0.02021
	14.25			  9.47386			  0.60432			 -0.05276
	14.50			  9.56275			  0.55475			 -0.03854
	14.75			  9.70069			  0.47772			 -0.12463
	15.00			  9.65644			  0.39930			 -0.00631
	15.25			  9.66247			  0.51002			 -0.04752
	15.50			  9.64965			  0.53713			 -0.02170
	15.75			  9.62325			  0.35785			 0.04273
	16.00			  9.61325			  0.55924			 -0.01972
	16.25			  9.57045			  0.43368			 -0.08809
	16.50			  9.64431			  0.45509			 -0.01571
	16.75			  9.66445			  0.49067			 0.10969
	17.00			  9.62333			  0.40051			 -0.00045
	17.25			  9.74601			  0.31312			 0.05673
	17.50			  9.64812			  0.33695			 0.19096
	17.75			  9.61173			  0.24835			 0.12160
	18.00			  9.59342			  0.36908			 0.15131
	18.25			  9.62653			  0.36217			 0.11633
	18.50			  9.56419			  0.21726			 0.11547
	18.75			  9.50674			  0.31744			 0.05750
	19.00			  9.58098			  0.28134			 -0.06172
	19.25			  9.63439			  0.24420			 -0.12839
	19.50			  9.69741			  0.20914			 -0.14376
	19.75			  9.69573			  0.25180			 -0.08522
	20.00			  9.63439			  0.24904			 0.05218
	20.25			  9.54794			  0.28790			 0.19571
	20.50			  9.60601			  0.26838			 0.17034
	20.75			  9.56992			  0.29481			 0.05638
	21.00			  9.54924			  0.18185			 0.02196
	21.25			  9.53413			  0.09825			 0.05985
	21.50			  9.59983			  -0.07654			 -0.03984
	21.75			  9.55969			  -0.21575			 0.02776
	22.00			  9.55412			  -0.25910			 0.03676
	22.25			  9.86168			  -0.23457			 0.03744
	22.50			  9.92051			  -0.28259			 0.06431
	22.75			  9.94233			  -0.32681			 0.02874
	23.00			  10.02397			  -0.24528			 -0.14261
	23.25			  10.05563			  -0.27188			 -0.18853
	23.50			  10.15657			  -0.00244			 -0.07613
	23.75			  10.12102			  -0.09243			 0.00377
	24.00			  10.07463			  -0.18328			 -0.03084
	24.25			  9.98177			  -0.31783			 0.00358
	24.50			  9.87114			  -0.29658			 -0.10892
	24.75			  9.93783			  -0.28708			 -0.02905
	25.00			  10.05685			  -0.18950			 -0.15029
	25.25			  10.08333			  -0.14182			 -0.27526
	25.50			  10.13010			  -0.13664			 -0.23517
	25.75			  10.12971			  -0.14010			 -0.20737
	26.00			  10.16268			  -0.15841			 -0.14292
	26.25			  10.11797			  -0.09346			 -0.09637
	26.50			  10.10988			  -0.02006			 -0.13968
	26.75			  10.21532			  0.03245			 -0.01846
	27.00			  10.38966			  0.17581			 -0.02133
	27.25			  10.33999			  0.29136			 -0.13170
	27.50			  10.31382			  0.21881			 0.08222
	27.75			  10.39027			  0.01103			 0.02552
	28.00			  10.39317			  -0.11557			 -0.00349
	28.25			  10.41392			  -0.12870			 0.08723
	28.50			  10.45345			  -0.11333			 0.05015
	28.75			  10.33000			  -0.18846			 0.15134
	29.00			  10.30032			  -0.18190			 0.16731
	29.25			  10.27758			  -0.08103			 0.17972
	29.50			  10.27758			  -0.16929			 0.04085
	29.75			  10.28437			  -0.18760			 -0.13639
	30.00			  10.26789			  -0.14459			 -0.13315
	30.25			  10.34518			  -0.20314			 -0.19653
	30.50			  10.28140			  -0.12127			 -0.01286
	30.75			  10.32702			  -0.11626			 0.02426
	31.00			  10.28704			  -0.11143			 0.09075
	31.25			  10.19236			  -0.16411			 0.18093
	31.50			  10.13429			  -0.15063			 0.06165
	31.75			  10.09843			  -0.19709			 0.11281
	32.00			  10.26369			  -0.23630			 0.09917
	32.25			  10.38257			  -0.30712			 -0.08961
	32.50			  10.48137			  -0.31506			 0.01109
	32.75			  10.32130			  -0.14545			 -0.02723
	33.00			  10.30421			  -0.16773			 -0.04756
	33.25			  10.34480			  -0.21247			 0.04073
	33.50			  10.40385			  -0.24926			 0.12809
	33.75			  10.42957			  -0.24787			 0.12410
	34.00			  10.51487			  -0.36239			 -0.00689
	34.25			  10.40851			  -0.29727			 0.02443
	34.50			  10.38089			  -0.24770			 0.04723
	34.75			  10.35754			  -0.24338			 0.06920
	35.00			  10.24981			  -0.13630			 0.00794
	35.25			  10.16794			  -0.19796			 0.06780
	35.50			  10.15375			  -0.21368			 0.08242
	35.75			  10.13597			  -0.21160			 0.10313
	36.00			  10.10881			  -0.14701			 0.15857
	36.25			  9.99802			  -0.10279			 0.15040
	36.50			  10.08912			  -0.11367			 0.30704
	36.75			  10.03587			  -0.14632			 0.24844
	37.00			  10.06715			  -0.04234			 0.13485
	37.25			  10.11110			  -0.16808			 0.12874
	37.50			  10.16847			  -0.33510			 0.12524
	37.75			  10.16878			  -0.31610			 0.06580
	38.00			  10.22150			  -0.23354			 -0.09332
	38.25			  10.30680			  -0.29209			 -0.09084
	38.50			  10.19052			  -0.42854			 -0.06783
	38.75			  10.11598			  -0.55756			 0.02356
	39.00			  10.03480			  -0.48001			 -0.02541
	39.25			  9.93355			  -0.45963			 -0.14754
	39.50			  9.79400			  -0.49504			 -0.04175
	39.75			  9.72091			  -0.49244			 0.00908
	40.00			  9.69634			  -0.45393			 -0.14635
	40.25			  9.76692			  -0.21627			 -0.11785
	40.50			  9.73731			  -0.30211			 -0.15938
	40.75			  9.51025			  -0.22939			 -0.09975
	41.00			  9.61524			  -0.13526			 -0.08529
	41.25			  9.53268			  -0.18742			 -0.08690
	41.50			  9.63057			  -0.10054			 -0.20161
	41.75			  9.70664			  0.04350			 -0.18655
	42.00			  9.75341			  0.01500			 -0.19483
	42.25			  9.75753			  0.00740			 -0.19296
	42.50			  9.75776			  0.05110			 0.04353
	42.75			  9.82384			  0.03089			 -0.03840
	43.00			  9.93264			  -0.00209			 -0.09257
	43.25			  9.87938			  -0.12093			 -0.10267
	43.50			  9.73976			  -0.01332			 -0.12510
	43.75			  9.87541			  0.01777			 -0.15071
	44.00			  10.06311			  -0.01384			 -0.24420
	44.25			  10.10004			  0.00136			 -0.18179
	44.50			  10.15131			  -0.13526			 -0.13779
	44.75			  10.13635			  -0.12213			 -0.12573
	45.00			  10.26568			  -0.09001			 -0.04959
	45.25			  10.34404			  -0.20435			 -0.02067
	45.50			  10.29849			  -0.17015			 -0.03891
	45.75			  10.32778			  -0.13440			 -0.02072
	46.00			  10.34755			  -0.15720			 -0.11498
	46.25			  10.21212			  -0.11281			 -0.16050
	46.50			  10.20906			  -0.18915			 -0.17715
	46.75			  10.18618			  -0.12628			 -0.09257
	47.00			  10.14909			  -0.02576			 -0.01806
	47.25			  10.14963			  -0.15737			 0.06834
	47.50			  10.13528			  -0.00987			 -0.03828
	47.75			  10.12979			  0.11967			 -0.07188
	48.00			  10.10965			  0.18444			 0.14751
	48.25			  9.99665			  -0.01850			 0.14376
	48.50			  9.88640			  -0.17689			 0.04668
	48.75			  9.87450			  -0.12507			 -0.01202
	49.00			  9.83665			  -0.03353			 0.03254
	49.25			  9.90693			  0.07045			 0.03609
	49.50			  9.93310			  0.07718			 0.07893
	49.75			  10.02519			  -0.03388			 -0.01892
	50.00			  10.03480			  -0.00071			 -0.10733
	50.25			  10.11743			  -0.05564			 -0.08909
	50.50			  10.12384			  -0.10884			 0.04413
	50.75			  10.09248			  -0.11039			 -0.02657
	51.00			  10.16138			  -0.13837			 -0.11027
	51.25			  10.14444			  -0.19779			 -0.24443
	51.50			  10.15245			  -0.14562			 -0.18121
	51.75			  10.09614			  -0.22197			 -0.06734
	52.00			  9.98956			  -0.29606			 -0.06482
	52.25			  10.05044			  -0.24287			 -0.17034
	52.50			  10.02770			  -0.10434			 0.01930
	52.75			  9.87450			  -0.07274			 0.08364
	53.00			  9.87961			  -0.04182			 0.12673
	53.25			  9.81163			  -0.06980			 0.19436
	53.50			  9.88381			  -0.10504			 0.08005
	53.75			  9.76646			  -0.19399			 -0.02123
	54.00			  9.68032			  -0.20383			 0.04161
	54.25			  9.71687			  -0.23147			 -0.15689
	54.50			  9.81995			  -0.16825			 -0.12564
	54.75			  9.78492			  -0.19330			 0.03173
	55.00			  9.82437			  -0.04821			 -0.04367
	55.25			  9.81987			  0.14023			 0.07916
	55.50			  9.90059			  -0.05460			 0.12634
	55.75			  10.09988			  -0.06445			 -0.07890
	56.00			  10.07852			  -0.18587			 -0.06890
	56.25			  10.13338			  -0.23958			 -0.04455
	56.50			  10.09851			  -0.12041			 -0.18709
	56.75			  10.22692			  -0.12334			 -0.14481
	57.00			  10.16321			  -0.13992			 -0.07569
	57.25			  10.20792			  -0.05149			 0.05572
	57.50			  10.18389			  -0.05184			 0.12760
	57.75			  10.30886			  -0.14476			 -0.07897
	58.00			  10.36006			  -0.22335			 -0.13123
	58.25			  10.30970			  -0.25720			 -0.13226
	58.50			  10.33847			  -0.25012			 -0.18998
	58.75			  10.14986			  -0.23250			 -0.14061
	59.00			  10.21105			  -0.11695			 -0.08520
	59.25			  10.22989			  0.04782			 -0.15808
	59.50			  10.02816			  0.00861			 -0.04469
	59.75			  10.10110			  -0.07740			 0.10537
	60.00			  10.16527			  -0.14752			 0.02002
	60.25			  10.26820			  -0.15167			 -0.05311
	60.50			  10.30490			  -0.07412			 0.02587
	60.75			  10.34564			  -0.13854			 0.00710
	61.00			  10.29673			  -0.18224			 0.08014
	61.25			  10.18602			  -0.15409			 0.12083
	61.50			  10.23607			  -0.03733			 0.10360
	61.75			  10.22081			  -0.04217			 0.06323
	62.00			  10.18244			  -0.11920			 0.13319
	62.25			  10.31321			  -0.01004			 0.11339
	62.50			  10.20777			  0.07131			 -0.05855
	62.75			  10.13712			  -0.06479			 -0.01890
	63.00			  10.22349			  -0.04717			 0.11969
	63.25			  10.18740			  0.02709			 0.16288
	63.50			  10.17626			  0.08444			 0.14285
	63.75			  10.04838			  0.14627			 0.12820
	64.00			  10.02938			  0.12900			 0.05474
	64.25			  10.01962			  0.16182			 -0.06815
	64.50			  10.09904			  0.15974			 0.05262
	64.75			  10.04907			  0.08167			 0.07282
	65.00			  10.03518			  0.16734			 0.21456
	65.25			  10.01618			  0.21968			 0.34804
	65.50			  9.92203			  0.10447			 0.35184
	65.75			  9.98826			  0.15249			 0.35035
	66.00			  9.92737			  0.07632			 0.24501
	66.25			  10.05929			  -0.02213			 0.26553
	66.50			  10.11507			  0.00170			 0.28550
	66.75			  10.04632			  0.12347			 0.28414
	67.00			  10.04342			  0.16475			 0.24431
	67.25			  10.05449			  0.16838			 0.27775
	67.50			  9.94897			  0.22365			 0.22403
	67.75			  10.01855			  0.20396			 0.15530
	68.00			  10.09744			  0.31623			 0.17144
	68.25			  10.12422			  0.25422			 0.07557
	68.50			  10.01321			  0.16907			 -0.11904
	68.75			  10.06913			  0.28393			 -0.04437
	69.00			  9.91585			  0.18151			 -0.06279
	69.25			  10.02343			  -0.00399			 -0.10442
	69.50			  10.03457			  0.11950			 -0.10449
	69.75			  9.95965			  0.21432			 -0.04148
	70.00			  10.02381			  0.26735			 0.01452
	70.25			  9.81064			  0.32106			 0.09357
	70.50			  9.84070			  0.26907			 0.04957
	70.75			  9.86107			  0.24075			 -0.01853
	71.00			  9.88671			  0.34870			 -0.11745
	71.25			  9.85451			  0.25819			 -0.05561
	71.50			  9.98986			  0.21968			 0.01568
	71.75			  10.02976			  0.16199			 -0.00943
	72.00			  9.93569			  0.21311			 -0.02650
	72.25			  9.90509			  0.33143			 -0.04558
	72.50			  10.05700			  0.13729			 -0.00768
	72.75			  10.10606			  0.08167			 -0.06253
	73.00			  10.03587			  -0.08535			 -0.09614
	73.25			  10.14452			  -0.06894			 -0.02718
	73.50			  10.13307			  -0.11212			 -0.09791
	73.75			  10.08912			  -0.14252			 -0.11409
	74.00			  10.01626			  -0.19692			 -0.22853
	74.25			  10.16702			  -0.18794			 -0.15113
	74.50			  10.17732			  -0.18241			 -0.04973
	74.75			  10.05403			  -0.25392			 0.01974
	75.00			  10.03099			  -0.17240			 0.00353
	75.25			  9.97178			  -0.09692			 0.14282
	75.50			  9.93287			  -0.09433			 0.05969
	75.75			  9.86252			  -0.12334			 0.10605
	76.00			  9.90074			  -0.10797			 -0.02748
	76.25			  10.01779			  -0.04959			 0.00547
	76.50			  10.05311			  -0.07360			 -0.01249
	76.75			  10.06410			  -0.06600			 -0.07697
	77.00			  10.17923			  -0.14355			 -0.13081
	77.25			  10.12514			  -0.08586			 -0.07233
	77.50			  9.95392			  -0.02023			 -0.13371
	77.75			  9.85878			  0.04609			 -0.23466
	78.00			  9.84932			  -0.05426			 -0.29420
	78.25			  9.94629			  0.08893			 -0.27822
	78.50			  10.06913			  0.22469			 -0.28816
	78.75			  10.13765			  0.19083			 -0.40396
	79.00			  10.19854			  0.23660			 -0.34953
	79.25			  10.28994			  0.20379			 -0.46014
	79.50			  10.34793			  0.21916			 -0.42418
	79.75			  10.31756			  0.21173			 -0.33512
	80.00			  10.29879			  0.21104			 -0.29345
	80.25			  10.27941			  0.10188			 -0.38661
	80.50			  10.30596			  0.11363			 -0.41845
	80.75			  10.24912			  0.02433			 -0.34683
	81.00			  10.19915			  -0.03025			 -0.26528
	81.25			  10.17229			  -0.13699			 -0.17209
	81.50			  10.14909			  -0.08241			 -0.16575
	81.75			  10.21669			  -0.19761			 -0.25887
	82.00			  10.33908			  -0.21247			 -0.22256
	82.25			  10.28597			  -0.14666			 -0.21619
	82.50			  10.36082			  -0.15771			 -0.25600
	82.75			  10.40485			  0.00948			 -0.35730
	83.00			  10.37043			  0.09325			 -0.22573
	83.25			  10.29528			  -0.02455			 -0.10840
	83.50			  10.39218			  -0.16445			 -0.20336
	83.75			  10.29589			  -0.26826			 -0.27437
	84.00			  10.20548			  -0.13284			 -0.18564
	84.25			  10.36075			  -0.01142			 -0.20024
	84.50			  10.34350			  -0.06548			 -0.22598
	84.75			  10.37188			  -0.08345			 -0.36357
	85.00			  10.46855			  -0.04717			 -0.15602
	85.25			  10.49930			  0.05974			 -0.24240
	85.50			  10.49907			  -0.05115			 -0.11433
	85.75			  10.34556			  -0.09795			 -0.14635
	86.00			  10.26690			  0.06561			 -0.28610
	86.25			  10.39256			  -0.08863			 -0.19975
	86.50			  10.44078			  -0.13733			 -0.20341
	86.75			  10.33648			  -0.12870			 -0.18401
	87.00			  10.29963			  -0.09605			 -0.21001
	87.25			  10.34083			  -0.17689			 -0.33738
	87.50			  10.23874			  -0.22749			 -0.27526
	87.75			  10.24225			  -0.29157			 -0.29508
	88.00			  10.29116			  -0.40522			 -0.23739
	88.25			  10.33923			  -0.46101			 -0.11001
	88.50			  10.26331			  -0.47586			 -0.18121
	88.75			  10.30406			  -0.35634			 -0.18520
	89.00			  10.31428			  -0.19381			 -0.16311
	89.25			  10.29658			  -0.14010			 -0.11619
	89.50			  10.25378			  0.01241			 -0.13653
	89.75			  10.30215			  -0.13682			 -0.22449
	90.00			  10.08737			  -0.06341			 -0.32092
	90.25			  10.13208			  -0.01678			 -0.24103
	90.50			  10.05243			  0.00378			 -0.14089
	90.75			  10.10988			  -0.10003			 -0.17911
	91.00			  9.96209			  -0.03474			 0.06951
	91.25			  9.95804			  0.00360			 -0.02177
	91.50			  9.91852			  0.03366			 -0.08450
	91.75			  9.98116			  0.00481			 -0.17197
	92.00			  10.04914			  -0.04493			 0.01246
	92.25			  10.11690			  0.11345			 -0.00260
	92.50			  10.18312			  0.19135			 -0.00099
	92.75			  10.02130			  0.19688			 0.08413
	93.00			  10.05876			  0.14834			 0.03646
	93.25			  10.05693			  0.12313			 0.05929
	93.50			  10.12147			  0.04834			 -0.07881
	93.75			  10.12590			  0.00913			 -0.11990
	94.00			  10.19464			  -0.09675			 -0.11155
	94.25			  10.13857			  -0.08690			 0.01263
	94.50			  10.21296			  -0.03198			 0.01295
	94.75			  10.12025			  -0.11713			 -0.03697
	95.00			  10.23066			  -0.13941			 0.03474
	95.25			  10.19007			  -0.08362			 -0.04425
	95.50			  9.96773			  -0.12973			 -0.07384
	95.75			  10.09309			  -0.17481			 -0.05922
	96.00			  10.12086			  -0.15685			 -0.02433
	96.25			  9.98666			  -0.20504			 0.04735
	96.50			  10.08211			  -0.12473			 0.15731
	96.75			  10.10042			  -0.15564			 0.13692
	97.00			  10.11064			  -0.03215			 0.12559
	97.25			  10.06578			  0.02951			 0.14259
	97.50			  9.97597			  -0.10072			 0.06295
	97.75			  9.94492			  -0.12732			 0.07023
	98.00			  9.85848			  -0.06065			 0.23872
	98.25			  9.90349			  -0.11091			 0.27388
	98.50			  9.89151			  -0.10538			 0.08728
	98.75			  9.77485			  -0.11885			 0.07825
	99.00			  9.80072			  -0.06496			 -0.09115
	99.25			  9.91471			  -0.04856			 -0.13207
	99.50			  9.90441			  0.04385			 0.02214
	99.75			  9.98421			  0.14506			 -0.12881
	100.00			  10.04167			  0.09031			 -0.21064
	100.25			  10.15886			  -0.08206			 -0.20301
	100.50			  9.97384			  0.05784			 -0.14726
	100.75			  10.12125			  0.03504			 -0.16519
	101.00			  10.20304			  -0.08345			 -0.19842
	101.25			  10.27605			  -0.06289			 -0.25621
	101.50			  10.29459			  -0.18829			 -0.18900
	101.75			  10.33992			  -0.17309			 -0.19140
	102.00			  10.33618			  -0.12127			 -0.21279
	102.25			  10.29673			  -0.07999			 -0.31343
	102.50			  10.35411			  -0.04907			 -0.32134
	102.75			  10.41583			  0.00481			 -0.22274
	103.00			  10.31527			  -0.05667			 -0.11528
	103.25			  10.33053			  -0.03474			 -0.08886
	103.50			  10.42361			  0.14990			 -0.01132
	103.75			  10.35083			  0.23073			 -0.15318
	104.00			  10.32962			  0.18461			 -0.23060
	104.25			  10.43216			  0.18738			 -0.08662
	104.50			  10.53821			  0.05093			 -0.15299
	104.75			  10.46962			  0.00550			 -0.10297
	105.00			  10.32099			  -0.12300			 -0.04845
	105.25			  10.28078			  -0.25219			 -0.05085
	105.50			  10.27827			  -0.22145			 0.01104
	105.75			  10.26667			  -0.12593			 0.04490
	106.00			  10.34945			  -0.13405			 -0.19511
	106.25			  10.36776			  -0.23561			 -0.25159
	106.50			  10.36448			  -0.05512			 -0.22997
	106.75			  10.17221			  -0.11730			 -0.18445
	107.00			  10.19594			  -0.03388			 -0.06573
	107.25			  10.16634			  -0.04787			 0.00507
	107.50			  10.18541			  -0.07377			 0.05966
	107.75			  10.17191			  -0.12697			 -0.09567
	108.00			  10.28086			  -0.00244			 0.00985
	108.25			  10.35594			  -0.10365			 -0.11780
	108.50			  10.36563			  0.06544			 -0.17421
	108.75			  10.31878			  0.09394			 -0.08793
	109.00			  10.39462			  -0.09208			 -0.05160
	109.25			  10.29238			  0.04920			 -0.04542
	109.50			  10.26934			  0.21847			 -0.08802
	109.75			  10.17702			  0.17512			 -0.23331
	110.00			  10.24409			  0.15439			 -0.12949
	110.25			  10.12353			  0.06941			 -0.06342
	110.50			  10.16878			  0.12744			 -0.16006
	110.75			  10.08897			  0.07805			 -0.10092
	111.00			  10.08554			  -0.00693			 -0.16330
	111.25			  10.10103			  0.14938			 -0.10423
	111.50			  10.16191			  0.04247			 -0.07452
	111.75			  10.18137			  0.18565			 0.05845
	112.00			  10.12575			  0.15283			 0.12774
	112.25			  10.11819			  0.01984			 0.10171
	112.50			  10.12231			  0.03988			 0.17813
	112.75			  10.15802			  -0.00624			 0.04528
	113.00			  10.21448			  0.01604			 0.03578
	113.25			  10.14093			  0.01276			 0.15439
	113.50			  10.12239			  0.09135			 0.10798
	113.75			  10.23195			  0.13263			 0.12862
	114.00			  10.11392			  0.12693			 0.05397
	114.25			  10.17000			  0.15042			 -0.18466
	114.50			  10.05334			  0.09290			 -0.29923
	114.75			  10.07341			  -0.03957			 -0.28804
	115.00			  10.13162			  -0.05978			 -0.23755
	115.25			  10.00138			  -0.11281			 -0.25583
	115.50			  9.99291			  -0.19243			 -0.26551
	115.75			  10.01145			  -0.16911			 -0.20509
	116.00			  9.93767			  -0.26895			 -0.06580
	116.25			  9.97697			  -0.35824			 -0.03481
	116.50			  10.04678			  -0.41662			 -0.05365
	116.75			  9.98391			  -0.55480			 0.02415
	117.00			  9.88297			  -0.52163			 -0.01088
	117.25			  9.92539			  -0.58813			 0.03511
	117.50			  9.90433			  -0.70523			 0.16365
	117.75			  9.86107			  -0.78762			 0.03653
	118.00			  9.89456			  -0.86051			 0.00705
	118.25			  9.87747			  -0.71473			 -0.03697
	118.50			  9.79385			  -0.68624			 -0.04926
	118.75			  9.75135			  -0.66205			 0.03674
	119.00			  9.82147			  -0.56827			 0.18203
	119.25			  9.77279			  -0.39054			 0.24205
	119.50			  9.82284			  -0.36308			 0.18993
	119.75			  9.85642			  -0.29019			 0.35383
	120.00			  9.74601			  -0.22801			 0.29303
	120.25			  9.74205			  -0.33959			 0.13170
	120.50			  9.63920			  -0.50695			 0.11230
	120.75			  9.53894			  -0.49866			 0.13331
	121.00			  9.49705			  -0.29105			 0.03613
	121.25			  9.54924			  -0.07688			 0.00164
	121.50			  9.65224			  -0.13388			 0.03793
	121.75			  9.82719			  -0.37413			 -0.04926
	122.00			  9.85581			  -0.29244			 -0.07902
	122.25			  9.76150			  -0.24338			 -0.04817
	122.50			  9.63279			  -0.24114			 -0.03093
	122.75			  9.68551			  -0.15392			 -0.04966
	123.00			  9.71595			  -0.19899			 -0.03401
	123.25			  9.71046			  0.01552			 0.19588
	123.50			  9.82727			  0.08634			 0.21640
	123.75			  9.88098			  0.10585			 0.10402
	124.00			  9.86405			  -0.00935			 0.10260
	124.25			  9.94187			  -0.06341			 -0.11829
	124.50			  10.21013			  -0.06220			 -0.17883
	124.75			  10.23020			  -0.11782			 -0.10831
	125.00			  10.21578			  -0.06289			 0.05001
	125.25			  10.13826			  -0.10469			 0.01435
	125.50			  10.04998			  -0.09588			 -0.07102
	125.75			  9.99772			  -0.22715			 -0.09642
	126.00			  9.93912			  0.02848			 -0.08380
	126.25			  9.96888			  0.11466			 -0.02695
	126.50			  9.98818			  0.09204			 -0.08086
	126.75			  9.90448			  0.21398			 -0.01135
	127.00			  9.98948			  0.17512			 -0.09322
	127.25			  9.97628			  0.09152			 -0.16118
	127.50			  9.88724			  -0.06652			 0.01034
	127.75			  9.86687			  -0.00555			 0.09369
	128.00			  9.78912			  0.00533			 0.02960
	128.25			  9.85588			  0.04886			 0.05719
	128.50			  9.89968			  0.02727			 -0.01319
	128.75			  9.90120			  0.15543			 0.00533
	129.00			  9.82651			  0.04540			 0.08037
	129.25			  9.68703			  0.02779			 0.09712
	129.50			  9.73304			  0.16890			 0.14373
	129.75			  9.72465			  0.26027			 0.14077
	130.00			  9.79774			  0.19550			 0.04362
	130.25			  9.86397			  0.13401			 0.12186
	130.50			  9.86405			  0.12434			 0.16680
	130.75			  9.83314			  0.10862			 0.09516
	131.00			  9.75517			  0.07511			 0.05017
	131.25			  9.75967			  0.18997			 0.19303
	131.50			  9.78920			  0.26217			 0.02151
	131.75			  9.88327			  0.12192			 -0.02398
	132.00			  9.87267			  0.05421			 -0.01503
	132.25			  9.98681			  -0.09070			 -0.06967
	132.50			  10.05326			  -0.01073			 0.02247
	132.75			  9.88045			  0.07407			 0.05022
	133.00			  9.92012			  0.07097			 0.07692
	133.25			  9.91684			  -0.11713			 0.01055
	133.50			  9.97460			  -0.15996			 0.02699
	133.75			  10.01481			  -0.08206			 -0.09094
	134.00			  9.84215			  -0.15271			 -0.08758
	134.25			  9.84459			  -0.24839			 -0.08494
	134.50			  9.81285			  -0.06047			 -0.04803
	134.75			  9.90235			  0.00602			 0.03352
	135.00			  10.01786			  -0.04510			 -0.02935
	135.25			  9.98772			  0.09066			 -0.01079
	135.50			  9.98002			  0.09359			 0.04266
	135.75			  9.93012			  0.09653			 0.13492
	136.00			  9.92096			  0.01120			 0.01051
	136.25			  9.82529			  -0.05097			 -0.00437
	136.50			  9.82788			  -0.02075			 -0.00309
	136.75			  9.84207			  -0.14528			 -0.00673
	137.00			  9.90486			  -0.18483			 0.10299
	137.25			  9.97590			  -0.15547			 0.17827
	137.50			  9.93393			  -0.15616			 0.16407
	137.75			  9.97277			  -0.31886			 0.18832
	138.00			  10.02900			  -0.22214			 0.24928
	138.25			  10.09965			  -0.14787			 0.15441
	138.50			  10.02755			  -0.22559			 0.08021
	138.75			  9.84520			  -0.21039			 0.16731
	139.00			  9.80316			  -0.39089			 0.14070
	139.25			  9.89800			  -0.43372			 0.08152
	139.50			  9.91394			  -0.32594			 0.03669
	139.75			  10.00214			  -0.25237			 0.09898
	140.00			  9.89861			  -0.15927			 0.11384
	140.25			  9.87717			  -0.25323			 0.03299
	140.50			  10.01916			  -0.06617			 0.18856
	140.75			  9.99955			  -0.07498			 0.13881
	141.00			  9.81506			  -0.14666			 0.20674
	141.25			  9.90059			  -0.14010			 0.20586
	141.50			  9.92981			  -0.17412			 0.03245
	141.75			  9.97842			  -0.12542			 0.11197
	142.00			  9.92852			  0.00464			 0.00244
	142.25			  9.97987			  -0.02818			 0.09185
	142.50			  10.03938			  0.01984			 0.08728
	142.75			  10.11789			  0.02761			 -0.01074
	143.00			  10.00070			  0.12105			 -0.08604
	143.25			  10.03793			  0.03331			 0.05253
	143.50			  9.98399			  -0.10262			 0.02942
	143.75			  9.86084			  -0.02351			 0.05775
	144.00			  9.70847			  -0.00019			 0.07046
	144.25			  9.71107			  0.04558			 0.03497
	144.50			  9.76333			  0.11777			 0.07562
	144.75			  9.86458			  -0.11229			 0.11992
	145.00			  9.83383			  -0.12973			 0.05759
	145.25			  9.84909			  0.12364			 -0.00351
	145.50			  9.85527			  -0.04096			 -0.10232
	145.75			  9.80507			  -0.15202			 -0.03471
	146.00			  9.73655			  -0.19399			 0.08459
	146.25			  9.79606			  -0.05512			 -0.01151
	146.50			  9.76539			  0.03245			 0.16260
	146.75			  9.81888			  0.01967			 0.14383
	147.00			  9.82620			  0.01051			 0.02559
	147.25			  9.90342			  0.06112			 -0.08655
	147.50			  9.82361			  -0.08725			 -0.05850
	147.75			  9.79492			  -0.14234			 -0.11666
	148.00			  9.90120			  -0.22024			 -0.30777
	148.25			  9.81018			  -0.30556			 -0.29541
	148.50			  9.74494			  -0.40056			 -0.13035
	148.75			  9.86504			  -0.46636			 -0.09943
	149.00			  9.83643			  -0.28449			 -0.08982
	149.25			  9.90723			  -0.39158			 0.02758
	149.50			  9.97979			  -0.50764			 -0.07522
	149.75			  10.00443			  -0.61352			 0.00388
	150.00			  9.87564			  -0.65515			 0.06165
	150.25			  9.80339			  -0.73235			 0.05507
	150.50			  9.82300			  -0.68036			 0.12571
	150.75			  9.81392			  -0.68554			 0.21505
	151.00			  9.81247			  -0.62699			 0.28734
	151.25			  9.82513			  -0.51231			 0.24273
	151.50			  9.83200			  -0.50177			 0.23806
	151.75			  9.73701			  -0.44011			 0.14380
	152.00			  9.67986			  -0.49227			 0.39531
	152.25			  9.83864			  -0.40937			 0.45944
	152.50			  9.82788			  -0.28950			 0.42253
	152.75			  9.88884			  -0.37189			 0.37582
	153.00			  9.90181			  -0.44028			 0.33209
	153.25			  9.84482			  -0.37638			 0.35068
	153.50			  9.95736			  -0.19761			 0.19809
	153.75			  10.09035			  -0.20210			 0.22307
	154.00			  10.15711			  0.01293			 0.14031
	154.25			  10.13399			  -0.03249			 0.02464
	154.50			  10.05281			  -0.00710			 -0.09929
	154.75			  10.09324			  -0.10244			 -0.07618
	155.00			  10.07821			  -0.04527			 -0.10323
	155.25			  10.15527			  -0.09761			 -0.12286
	155.50			  10.14429			  -0.19761			 0.03072
	155.75			  10.17267			  -0.22318			 -0.05598
	156.00			  10.11613			  -0.21748			 -0.01566
	156.25			  10.20693			  -0.21575			 -0.05111
	156.50			  10.10438			  -0.31230			 -0.11643
	156.75			  10.07135			  -0.26946			 -0.03704
	157.00			  10.17923			  -0.16359			 -0.02506
	157.25			  10.17694			  -0.12973			 -0.07284
	157.50			  10.27003			  -0.11264			 0.00176
	157.75			  10.22249			  -0.18345			 0.00607
	158.00			  10.20052			  -0.14752			 -0.09723
	158.25			  10.24775			  -0.24477			 -0.09868
	158.50			  10.30482			  -0.26739			 -0.08163
	158.75			  10.32656			  -0.28501			 -0.02107
	159.00			  10.32588			  -0.22611			 -0.01391
	159.25			  10.24401			  -0.11937			 -0.01578
	159.50			  10.33541			  -0.12403			 -0.10465
	159.75			  10.41240			  -0.08431			 -0.03732
	160.00			  10.28429			  0.09186			 -0.01400
	160.25			  10.20586			  0.13487			 -0.02905
	160.50			  10.24439			  0.17650			 -0.06246
	160.75			  10.24027			  0.06129			 -0.16489
	161.00			  10.19297			  0.02019			 -0.11482
	161.25			  10.10263			  -0.05547			 -0.18727
	161.50			  10.15199			  -0.08845			 -0.13081
	161.75			  10.28903			  -0.00434			 -0.07321
	162.00			  10.34892			  -0.08897			 -0.19282
	162.25			  10.24836			  -0.12870			 -0.09581
	162.50			  10.30146			  -0.21799			 -0.18301
	162.75			  10.27285			  -0.20608			 -0.15152
	163.00			  10.18816			  -0.20919			 -0.09026
	163.25			  10.23730			  -0.33043			 -0.05586
	163.50			  10.13101			  -0.32111			 0.02727
	163.75			  10.17847			  -0.17689			 -0.00666
	164.00			  10.15840			  -0.22542			 0.09791
	164.25			  10.12895			  -0.26307			 -0.07795
	164.50			  10.10232			  -0.29244			 -0.16456
	164.75			  10.01275			  -0.29969			 -0.09572
	165.00			  10.07310			  -0.21212			 0.02249
	165.25			  10.04426			  -0.29244			 0.02217
	165.50			  10.07142			  -0.39779			 -0.11941