--------------TurbSim v2.00.* User Time Series Input File-----------------------
     Time series input from low-res turbsim run
--------------------------------------------------------------------------------
          3 nComp - Number of velocity components in the file
          1 nPoints - Number of time series points contained in this file (-)
          1 RefPtID - Index of the reference point (1-nPoints)
     Pointyi Pointzi ! nPoints listed in order of increasing height
       (m)     (m)
       -3.86487   94.00000
--------Time Series-------------------------------------------------------------
Elapsed Time         Point01u             Point01v           Point01w
         (s)            (m/s)                (m/s)              (m/s)
	0.00			  9.84545			  0.27305			 0.09568
	0.25			  9.86246			  0.23559			 0.01799
	0.50			  9.71433			  0.19265			 -0.03906
	0.75			  9.77660			  0.27688			 -0.02917
	1.00			  9.77476			  0.14624			 -0.15166
	1.25			  9.84150			  0.17109			 -0.14906
	1.50			  10.00875			  0.26939			 -0.08831
	1.75			  9.95604			  0.17785			 -0.14100
	2.00			  9.92842			  0.09964			 -0.06409
	2.25			  9.96876			  0.01779			 -0.18550
	2.50			  9.93561			  -0.08746			 -0.30811
	2.75			  10.00288			  -0.15013			 -0.27943
	3.00			  9.99112			  -0.13369			 -0.38143
	3.25			  9.96034			  -0.14411			 -0.23066
	3.50			  9.82721			  0.02546			 -0.17349
	3.75			  9.79695			  0.05159			 -0.19201
	4.00			  9.88141			  -0.00871			 -0.20826
	4.25			  9.98569			  -0.19362			 -0.23123
	4.50			  10.04033			  -0.08527			 -0.25031
	4.75			  10.14285			  0.00244			 -0.25151
	5.00			  10.05374			  0.06018			 -0.31109
	5.25			  10.07804			  -0.07321			 -0.11868
	5.50			  10.07295			  -0.02607			 0.03696
	5.75			  9.97736			  -0.11597			 -0.15022
	6.00			  9.89588			  -0.20532			 -0.27200
	6.25			  9.96648			  -0.21080			 -0.17388
	6.50			  9.99262			  -0.15653			 -0.19004
	6.75			  9.96569			  -0.19362			 -0.17854
	7.00			  9.94078			  -0.33487			 -0.21823
	7.25			  9.77529			  -0.24095			 -0.32223
	7.50			  9.78704			  -0.29503			 -0.24476
	7.75			  9.87439			  -0.04215			 -0.33836
	8.00			  10.06506			  -0.16512			 -0.50795
	8.25			  10.26555			  -0.21701			 -0.38484
	8.50			  10.23406			  -0.32482			 -0.44837
	8.75			  10.31668			  -0.21646			 -0.45855
	9.00			  10.24336			  -0.28754			 -0.42949
	9.25			  10.36220			  -0.34126			 -0.32450
	9.50			  10.25003			  -0.34893			 -0.41181
	9.75			  10.13505			  -0.53531			 -0.33651
	10.00			  9.95096			  -0.40594			 -0.28054
	10.25			  10.00323			  -0.53330			 -0.18992
	10.50			  10.05304			  -0.45711			 -0.18628
	10.75			  10.01156			  -0.21537			 -0.22439
	11.00			  9.99788			  -0.33487			 0.01530
	11.25			  9.89658			  -0.33870			 -0.19622
	11.50			  9.89693			  -0.43025			 -0.24061
	11.75			  9.89211			  -0.41252			 -0.08057
	12.00			  9.97481			  -0.24460			 -0.27409
	12.25			  9.92193			  -0.33706			 -0.28681
	12.50			  10.05927			  -0.38658			 -0.30440
	12.75			  10.18293			  -0.32792			 -0.24700
	13.00			  10.23845			  -0.26360			 -0.16175
	13.25			  10.16478			  -0.10902			 -0.18472
	13.50			  10.14031			  -0.12821			 -0.20924
	13.75			  10.01516			  -0.03009			 -0.09204
	14.00			  9.92771			  -0.01255			 0.17322
	14.25			  9.85431			  0.05579			 0.06951
	14.50			  9.89465			  0.03460			 0.16109
	14.75			  9.96323			  -0.21939			 0.08454
	15.00			  9.79116			  -0.27914			 -0.02439
	15.25			  9.72196			  -0.33103			 -0.01588
	15.50			  9.70889			  -0.19746			 -0.14891
	15.75			  9.65838			  -0.12894			 0.04233
	16.00			  9.69802			  -0.18778			 -0.04900
	16.25			  9.72758			  -0.32408			 -0.11444
	16.50			  9.81458			  0.11116			 -0.25169
	16.75			  9.84334			  0.09069			 -0.15593
	17.00			  9.84282			  0.13765			 -0.18511
	17.25			  9.81624			  -0.00067			 -0.29317
	17.50			  9.84527			  0.15099			 -0.52047
	17.75			  10.16969			  0.20763			 -0.32848
	18.00			  10.22328			  0.08009			 -0.26459
	18.25			  10.35773			  -0.06773			 -0.20429
	18.50			  10.39237			  -0.14210			 -0.24353
	18.75			  10.38763			  -0.01236			 -0.06561
	19.00			  10.35992			  -0.06736			 -0.08180
	19.25			  10.22854			  -0.26105			 -0.03275
	19.50			  10.33291			  -0.22962			 0.08415
	19.75			  10.20188			  -0.13460			 0.10694
	20.00			  10.16565			  -0.08326			 0.14666
	20.25			  10.33641			  -0.07394			 0.03054
	20.50			  10.26160			  -0.14995			 -0.12878
	20.75			  10.06734			  -0.30271			 -0.18251
	21.00			  10.11601			  -0.31221			 -0.12421
	21.25			  10.07602			  -0.24606			 -0.13027
	21.50			  10.30466			  -0.32006			 -0.11845
	21.75			  10.32992			  -0.25246			 0.06348
	22.00			  10.20854			  -0.27493			 0.17369
	22.25			  10.21793			  -0.32847			 0.15485
	22.50			  10.25660			  -0.44505			 0.13170
	22.75			  10.22740			  -0.52453			 -0.02406
	23.00			  10.15802			  -0.62612			 -0.33977
	23.25			  10.05462			  -0.58227			 -0.14652
	23.50			  9.99472			  -0.63690			 -0.08102
	23.75			  9.93640			  -0.75567			 -0.14461
	24.00			  9.93035			  -0.65371			 -0.23260
	24.25			  9.92614			  -0.41581			 -0.06716
	24.50			  10.01472			  -0.31605			 0.15013
	24.75			  9.88816			  -0.32829			 0.14929
	25.00			  9.81370			  -0.38694			 0.11291
	25.25			  9.88825			  -0.38767			 0.03947
	25.50			  9.95455			  -0.46843			 -0.04171
	25.75			  9.93140			  -0.78162			 -0.11525
	26.00			  9.95297			  -0.85142			 -0.21334
	26.25			  10.00788			  -0.85891			 -0.16355
	26.50			  10.09733			  -0.72918			 -0.17651
	26.75			  9.98279			  -0.59122			 -0.10205
	27.00			  9.87422			  -0.41544			 0.09347
	27.25			  9.73766			  -0.47958			 0.04864
	27.50			  9.73871			  -0.41252			 0.10536
	27.75			  9.83150			  -0.58556			 0.02319
	28.00			  9.96139			  -0.74343			 -0.06728
	28.25			  9.80546			  -0.50754			 -0.15115
	28.50			  9.67118			  -0.50900			 -0.09533
	28.75			  9.68478			  -0.58391			 -0.30324
	29.00			  9.77423			  -0.56802			 -0.13926
	29.25			  9.83212			  -0.41544			 0.07256
	29.50			  9.78721			  -0.30161			 0.10882
	29.75			  9.83852			  -0.25063			 -0.03870
	30.00			  9.88535			  -0.13716			 -0.25088
	30.25			  9.85027			  -0.19052			 -0.08661
	30.50			  10.02989			  -0.24076			 -0.22155
	30.75			  9.94569			  -0.25264			 -0.22708
	31.00			  9.88816			  -0.22870			 -0.14667
	31.25			  9.84817			  -0.37726			 -0.10238
	31.50			  9.94701			  -0.30453			 -0.08720
	31.75			  9.87974			  -0.27767			 -0.45664
	32.00			  9.84185			  -0.53293			 -0.42755
	32.25			  9.74626			  -0.45966			 -0.41671
	32.50			  9.91570			  -0.55413			 -0.65936
	32.75			  9.88062			  -0.40430			 -0.44658
	33.00			  10.02357			  -0.46058			 -0.33120
	33.25			  10.09558			  -0.37488			 -0.36154
	33.50			  10.01770			  -0.32335			 -0.32689
	33.75			  10.14119			  -0.23894			 -0.18783
	34.00			  10.20012			  -0.13131			 -0.05441
	34.25			  10.06480			  -0.04836			 -0.09808
	34.50			  10.05936			  -0.21372			 -0.30279
	34.75			  9.99244			  -0.37305			 -0.19326
	35.00			  9.86711			  -0.31879			 -0.16623
	35.25			  10.01726			  -0.32573			 -0.01887
	35.50			  10.14504			  -0.16658			 -0.13888
	35.75			  10.07856			  -0.02004			 -0.31301
	36.00			  10.10286			  -0.11999			 -0.39204
	36.25			  10.03559			  -0.00853			 -0.38654
	36.50			  10.00867			  -0.14337			 -0.29326
	36.75			  10.01910			  -0.11761			 -0.36943
	37.00			  10.04366			  -0.17900			 -0.57056
	37.25			  9.91833			  -0.10537			 -0.47370
	37.50			  10.00849			  -0.13935			 -0.57883
	37.75			  9.98113			  -0.37232			 -0.46805
	38.00			  10.01121			  -0.47191			 -0.54851
	38.25			  9.96613			  -0.40704			 -0.48493
	38.50			  9.94683			  -0.38383			 -0.26931
	38.75			  9.83554			  -0.36611			 -0.30282
	39.00			  9.85238			  -0.53604			 -0.25303
	39.25			  9.67679			  -0.59616			 -0.21450
	39.50			  9.65171			  -0.51083			 -0.09512
	39.75			  9.79441			  -0.43427			 0.01716
	40.00			  9.86308			  -0.48981			 -0.13675
	40.25			  9.89798			  -0.49858			 -0.09963
	40.50			  9.99761			  -0.44907			 -0.08977
	40.75			  9.92307			  -0.40686			 -0.01576
	41.00			  9.66794			  -0.33194			 0.08242
	41.25			  9.49060			  -0.37013			 0.06345
	41.50			  9.64277			  -0.40521			 -0.04136
	41.75			  9.67644			  -0.31276			 -0.13690
	42.00			  9.62207			  -0.51941			 -0.15844
	42.25			  9.70240			  -0.44779			 -0.16970
	42.50			  9.73898			  -0.60968			 -0.24810
	42.75			  9.69960			  -0.61242			 -0.27669
	43.00			  9.54085			  -0.56217			 -0.14557
	43.25			  9.65233			  -0.56838			 -0.12657
	43.50			  9.62268			  -0.64037			 -0.33475
	43.75			  9.58813			  -0.80683			 -0.31059
	44.00			  9.51779			  -0.69921			 -0.16555
	44.25			  9.55506			  -0.80373			 -0.23699
	44.50			  9.64645			  -0.83095			 -0.28254
	44.75			  9.36641			  -0.70743			 -0.34723
	45.00			  9.44333			  -0.84995			 -0.46023
	45.25			  9.46718			  -0.97603			 -0.49177
	45.50			  9.41421			  -0.75330			 -0.47441
	45.75			  9.46973			  -0.72461			 -0.37746
	46.00			  9.54647			  -0.63489			 -0.25990
	46.25			  9.56664			  -0.48780			 -0.23209
	46.50			  9.53094			  -0.48488			 -0.32477
	46.75			  9.44499			  -0.51996			 -0.37265
	47.00			  9.31142			  -0.33121			 -0.32758
	47.25			  9.32142			  -0.29521			 -0.31172
	47.50			  9.36676			  -0.30216			 -0.25596
	47.75			  9.31642			  -0.50882			 -0.26492
	48.00			  9.29064			  -0.54993			 -0.13392
	48.25			  9.42991			  -0.66066			 -0.04091
	48.50			  9.16645			  -0.52471			 -0.09321
	48.75			  9.41903			  -0.51759			 -0.14912
	49.00			  9.59462			  -0.40138			 -0.19912
	49.25			  9.56015			  -0.22487			 -0.20748
	49.50			  9.47937			  -0.12693			 -0.31047
	49.75			  9.41254			  -0.20404			 -0.19198
	50.00			  9.35457			  0.18497			 -0.32232
	50.25			  9.44710			  0.08028			 -0.19067
	50.50			  9.47350			  -0.07029			 0.08950
	50.75			  9.56953			  -0.21317			 -0.01615
	51.00			  9.61233			  -0.34967			 0.00691
	51.25			  9.45438			  -0.24460			 0.01975
	51.50			  9.42421			  -0.17572			 -0.02054
	51.75			  9.34729			  -0.07266			 0.06082
	52.00			  9.35045			  -0.21098			 0.03570
	52.25			  9.47543			  -0.22267			 -0.08395
	52.50			  9.30353			  -0.31623			 0.12104
	52.75			  9.41167			  -0.23017			 0.10016
	53.00			  9.43789			  -0.33413			 0.05748
	53.25			  9.53796			  -0.19746			 -0.02114
	53.50			  9.44719			  -0.18321			 0.12465
	53.75			  9.30712			  -0.21902			 0.09006
	54.00			  9.40623			  -0.01748			 -0.05575
	54.25			  9.31589			  -0.12638			 -0.07720
	54.50			  9.22258			  -0.12474			 -0.11074
	54.75			  9.36229			  -0.16183			 -0.07242
	55.00			  9.38816			  -0.06170			 0.03857
	55.25			  9.29143			  -0.20276			 0.08248
	55.50			  9.19978			  -0.28060			 0.09191
	55.75			  9.20969			  -0.30563			 0.09108
	56.00			  9.29265			  -0.32134			 0.10306
	56.25			  9.36124			  -0.24661			 0.06384
	56.50			  9.47718			  -0.19198			 -0.04407
	56.75			  9.50647			  -0.09568			 -0.06627
	57.00			  9.82879			  -0.05293			 0.03726
	57.25			  9.84896			  -0.15434			 0.02432
	57.50			  9.70109			  -0.31805			 -0.03222
	57.75			  9.57901			  -0.17553			 -0.12848
	58.00			  9.59497			  -0.11396			 -0.11624
	58.25			  9.60768			  -0.05823			 -0.18036
	58.50			  9.63996			  -0.08783			 -0.28203
	58.75			  9.66732			  -0.03045			 -0.25175
	59.00			  9.74240			  -0.19655			 -0.19751
	59.25			  9.83405			  -0.12839			 -0.15877
	59.50			  9.86369			  -0.10281			 -0.12624
	59.75			  9.72854			  -0.02095			 -0.13992
	60.00			  9.70425			  -0.16457			 -0.14942
	60.25			  9.81800			  -0.29741			 -0.27468
	60.50			  9.72766			  -0.08235			 -0.19085
	60.75			  9.93780			  -0.05512			 -0.24927
	61.00			  9.81659			  -0.01492			 -0.25847
	61.25			  9.92684			  -0.01638			 -0.13792
	61.50			  10.06778			  -0.10153			 -0.03508
	61.75			  10.05103			  0.08740			 0.00670
	62.00			  10.11365			  0.28638			 -0.00534
	62.25			  9.97341			  0.32494			 -0.18643
	62.50			  10.01726			  0.42489			 -0.21349
	62.75			  10.19205			  0.42671			 -0.07836
	63.00			  10.21196			  0.31087			 -0.07753
	63.25			  10.26301			  0.29461			 -0.17782
	63.50			  10.39456			  0.25167			 -0.26513
	63.75			  10.34255			  0.18735			 -0.11618
	64.00			  10.33694			  -0.05676			 -0.05315
	64.25			  10.25757			  -0.00706			 -0.06746
	64.50			  10.24897			  -0.04872			 -0.21868
	64.75			  10.20907			  0.00700			 -0.28099
	65.00			  10.19749			  0.00006			 -0.26976
	65.25			  10.07971			  0.05177			 -0.16157
	65.50			  10.13724			  0.00079			 -0.02872
	65.75			  10.09619			  -0.03813			 -0.00898
	66.00			  10.18846			  0.11865			 0.00936
	66.25			  10.07514			  0.00134			 -0.01836
	66.50			  10.05217			  -0.04050			 -0.04482
	66.75			  10.00025			  0.10385			 0.03218
	67.00			  9.87422			  0.13162			 0.08726
	67.25			  9.88465			  -0.00396			 0.06040
	67.50			  9.83492			  -0.04598			 -0.02323
	67.75			  9.67864			  -0.09806			 -0.10766
	68.00			  9.77441			  0.00810			 -0.07478
	68.25			  10.01516			  0.03862			 -0.04381
	68.50			  9.88237			  0.04373			 -0.10656
	68.75			  9.88755			  -0.05896			 -0.15115
	69.00			  9.97174			  -0.05896			 -0.24816
	69.25			  9.89500			  0.10147			 -0.26829
	69.50			  9.88720			  -0.04215			 -0.02526
	69.75			  9.90395			  -0.19856			 0.00222
	70.00			  9.95674			  -0.34491			 -0.02114
	70.25			  10.03752			  -0.23346			 0.00207
	70.50			  9.95148			  -0.22615			 -0.11161
	70.75			  9.83519			  -0.18577			 -0.04754
	71.00			  9.80923			  -0.17042			 0.01130
	71.25			  9.85141			  -0.19271			 0.01981
	71.50			  9.96683			  -0.04891			 0.06760
	71.75			  9.94894			  0.12961			 -0.05745
	72.00			  10.00998			  0.12504			 0.02824
	72.25			  9.97920			  0.07297			 -0.05059
	72.50			  10.06111			  0.06127			 -0.02574
	72.75			  10.20538			  0.13564			 -0.01459
	73.00			  10.26318			  -0.01127			 0.06193
	73.25			  10.26257			  -0.20404			 0.08024
	73.50			  10.31536			  -0.23053			 0.14332
	73.75			  10.24038			  -0.10921			 0.09920
	74.00			  10.20416			  -0.10519			 0.01273
	74.25			  10.15601			  -0.08527			 -0.04094
	74.50			  10.11873			  -0.02333			 -0.02812
	74.75			  10.19933			  0.13765			 -0.01271
	75.00			  10.15723			  0.25094			 0.02316
	75.25			  10.04752			  0.12815			 -0.08589
	75.50			  10.15259			  0.23650			 0.04117
	75.75			  9.97315			  0.31836			 0.37294
	76.00			  9.94420			  0.15592			 0.33946
	76.25			  10.11584			  0.28419			 0.30126
	76.50			  10.19170			  0.02345			 0.26282
	76.75			  10.31887			  -0.00816			 0.24508
	77.00			  10.46411			  -0.15489			 0.17662
	77.25			  10.74502			  -0.12729			 0.25407
	77.50			  10.81352			  -0.09258			 0.23758
	77.75			  10.75748			  -0.09788			 0.15667
	78.00			  10.81624			  -0.25556			 0.02128
	78.25			  10.80387			  -0.33925			 -0.05032
	78.50			  10.81624			  -0.39187			 0.16939
	78.75			  10.46341			  -0.26525			 0.31079
	79.00			  10.12952			  -0.29923			 0.25117
	79.25			  10.19951			  -0.12894			 0.14320
	79.50			  10.26379			  -0.10171			 0.14269
	79.75			  10.29019			  -0.22140			 0.09156
	80.00			  10.17434			  -0.21957			 0.00425
	80.25			  10.36264			  -0.22267			 -0.00522
	80.50			  10.48174			  -0.43755			 0.03373
	80.75			  10.43026			  -0.39187			 0.10580
	81.00			  10.55743			  -0.67272			 0.15255
	81.25			  10.56725			  -0.70579			 0.11877
	81.50			  10.50410			  -0.58008			 0.00873
	81.75			  10.33633			  -0.43975			 0.16838
	82.00			  10.31001			  -0.32701			 0.29188
	82.25			  10.22635			  -0.53293			 0.22537
	82.50			  10.31922			  -0.48744			 0.10297
	82.75			  10.39509			  -0.56034			 0.17829
	83.00			  10.35623			  -0.56418			 0.17886
	83.25			  10.44096			  -0.49931			 -0.10465
	83.50			  10.58698			  -0.60292			 0.07821
	83.75			  10.38211			  -0.63526			 -0.03670
	84.00			  10.46429			  -0.52965			 -0.04829
	84.25			  10.50524			  -0.55249			 0.14221
	84.50			  10.46499			  -0.48890			 0.13009
	84.75			  10.48428			  -0.55376			 0.00655
	85.00			  10.39789			  -0.59360			 0.20658
	85.25			  10.37772			  -0.34802			 0.14630
	85.50			  10.38483			  -0.23894			 0.08863
	85.75			  10.33299			  -0.21774			 0.06829
	86.00			  10.37228			  -0.16037			 0.17047
	86.25			  10.33352			  0.04556			 0.24221
	86.50			  10.30037			  0.26574			 0.06031
	86.75			  10.38974			  0.09891			 -0.13171
	87.00			  10.31115			  0.19082			 0.13227
	87.25			  10.53340			  -0.11798			 0.05377
	87.50			  10.55725			  -0.46368			 -0.00755
	87.75			  10.50173			  -0.30124			 0.13030
	88.00			  10.45832			  -0.16311			 0.19006
	88.25			  10.65557			  0.05214			 0.14060
	88.50			  10.74257			  -0.05110			 0.14054
	88.75			  10.64162			  -0.38658			 0.23286
	89.00			  10.69872			  -0.31641			 0.23812
	89.25			  10.53261			  -0.33121			 0.28662
	89.50			  10.46928			  -0.25319			 0.13149
	89.75			  10.51498			  -0.33194			 -0.03741
	90.00			  10.42412			  -0.31458			 0.15616
	90.25			  10.42692			  -0.25118			 0.07901
	90.50			  10.40789			  -0.22468			 0.14069
	90.75			  10.40026			  -0.49749			 0.13654
	91.00			  10.37360			  -0.31495			 -0.00635
	91.25			  10.40000			  -0.31349			 0.07101
	91.50			  10.35281			  -0.34382			 0.23824
	91.75			  10.43455			  -0.20970			 0.11808
	92.00			  10.49498			  -0.13387			 -0.04285
	92.25			  10.59382			  -0.12145			 -0.10934
	92.50			  10.35720			  -0.04909			 -0.03583
	92.75			  10.42210			  0.03003			 0.07928
	93.00			  10.50463			  -0.07577			 -0.08195
	93.25			  10.32703			  -0.32975			 -0.04013
	93.50			  10.41158			  -0.36045			 -0.06842
	93.75			  10.30458			  -0.56016			 -0.02809
	94.00			  10.28818			  -0.45656			 0.09798
	94.25			  10.43280			  -0.26415			 0.20807
	94.50			  10.52848			  -0.18010			 0.02815
	94.75			  10.38097			  -0.26251			 -0.02911
	95.00			  10.35238			  -0.24716			 0.25036
	95.25			  10.36036			  -0.24131			 0.25989
	95.50			  10.17934			  -0.34053			 0.24397
	95.75			  10.28256			  -0.50279			 0.22184
	96.00			  10.34895			  -0.26123			 0.34233
	96.25			  10.25818			  -0.32207			 0.42766
	96.50			  10.32887			  -0.35094			 0.26590
	96.75			  10.29984			  -0.49127			 0.25586
	97.00			  10.18083			  -0.57898			 0.40696
	97.25			  10.06190			  -0.50626			 0.21133
	97.50			  9.94219			  -0.36575			 0.20819
	97.75			  10.02033			  -0.47574			 0.15362
	98.00			  10.15127			  -0.44505			 0.11936
	98.25			  10.20109			  -0.18595			 0.09872
	98.50			  10.16574			  -0.14794			 -0.08520
	98.75			  10.14539			  -0.13954			 -0.05880
	99.00			  10.22626			  -0.09495			 -0.15073
	99.25			  10.31589			  0.03277			 -0.23840
	99.50			  10.40289			  -0.03630			 -0.33750
	99.75			  10.52568			  -0.25319			 -0.20264
	100.00			  10.64566			  -0.26397			 -0.25348
	100.25			  10.44762			  -0.32445			 -0.36429
	100.50			  10.55225			  -0.33468			 -0.28469
	100.75			  10.55927			  -0.30965			 -0.08054
	101.00			  10.52840			  -0.30143			 -0.07221
	101.25			  10.43324			  -0.20385			 0.11351
	101.50			  10.47613			  -0.11907			 0.03206
	101.75			  10.36720			  -0.10354			 0.20180
	102.00			  10.32633			  -0.17243			 0.23310
	102.25			  10.48077			  -0.26872			 0.16333
	102.50			  10.56137			  -0.14136			 0.13809
	102.75			  10.38369			  -0.05786			 0.31637
	103.00			  10.40991			  -0.08107			 0.32623
	103.25			  10.43999			  -0.20422			 0.18358
	103.50			  10.42841			  -0.18997			 0.28173
	103.75			  10.45630			  -0.06407			 0.12507
	104.00			  10.30817			  -0.38530			 0.27754
	104.25			  10.29528			  -0.31605			 0.23893
	104.50			  10.16618			  -0.40814			 0.03543
	104.75			  10.06462			  -0.44961			 0.08687
	105.00			  10.21135			  -0.35515			 -0.02863
	105.25			  10.37237			  -0.19600			 -0.03099
	105.50			  10.43192			  -0.13552			 0.07116
	105.75			  10.36150			  -0.13004			 -0.07099
	106.00			  10.39491			  -0.05128			 -0.18502
	106.25			  10.48577			  -0.00725			 -0.09578
	106.50			  10.53892			  0.05908			 -0.21142
	106.75			  10.28212			  0.00883			 -0.21850
	107.00			  10.18802			  -0.03155			 -0.13652
	107.25			  10.13961			  -0.11012			 -0.09748
	107.50			  10.21529			  -0.10939			 -0.00772
	107.75			  10.23801			  -0.19088			 -0.08897
	108.00			  10.11645			  -0.15690			 0.06984
	108.25			  10.03506			  -0.22194			 0.04544
	108.50			  10.08295			  -0.06206			 0.01957
	108.75			  10.19267			  -0.02442			 -0.07690
	109.00			  10.20679			  -0.14520			 -0.05136
	109.25			  9.99384			  -0.02972			 0.01895
	109.50			  9.99121			  -0.14575			 0.05395
	109.75			  9.89491			  -0.08161			 -0.20175
	110.00			  9.88799			  -0.05695			 -0.17340
	110.25			  9.85764			  0.00097			 -0.19846
	110.50			  9.95990			  -0.16165			 -0.15500
	110.75			  9.85010			  -0.12474			 -0.25885
	111.00			  9.85299			  -0.26543			 -0.19255
	111.25			  9.88746			  -0.30344			 -0.11322
	111.50			  9.95201			  -0.40046			 -0.05865
	111.75			  9.93982			  -0.35021			 -0.02203
	112.00			  9.88562			  -0.54755			 0.02170
	112.25			  9.91947			  -0.54792			 0.00204
	112.50			  9.91675			  -0.27292			 -0.02944
	112.75			  10.02542			  -0.16603			 -0.22714
	113.00			  10.10338			  -0.11944			 -0.05928
	113.25			  9.89842			  -0.05201			 0.08776
	113.50			  9.95052			  0.02509			 -0.02224
	113.75			  9.98814			  0.02016			 -0.06199
	114.00			  9.70319			  -0.01309			 0.13943
	114.25			  9.84799			  0.05396			 0.30239
	114.50			  9.97139			  0.06840			 0.30870
	114.75			  9.96894			  -0.05914			 0.34908
	115.00			  9.72907			  0.18205			 0.24236
	115.25			  9.85439			  0.04501			 0.16049
	115.50			  9.84659			  0.07680			 0.09430
	115.75			  9.97315			  -0.02844			 -0.00958
	116.00			  9.87536			  0.22645			 0.05601
	116.25			  9.90325			  0.27469			 0.05891
	116.50			  10.16487			  0.37153			 -0.17457
	116.75			  9.93991			  0.28090			 -0.01618
	117.00			  9.96753			  0.13564			 0.05721
	117.25			  9.94376			  0.12395			 -0.06435
	117.50			  9.91570			  0.13911			 -0.17600
	117.75			  9.92833			  0.18625			 -0.21160
	118.00			  10.00840			  0.20855			 -0.07597
	118.25			  10.10023			  0.04556			 -0.02505
	118.50			  10.18083			  0.04775			 0.00222
	118.75			  10.03524			  -0.03191			 0.22542
	119.00			  9.91921			  0.16506			 0.05425
	119.25			  9.86790			  0.33718			 0.23749
	119.50			  9.81958			  0.24984			 0.39003
	119.75			  9.82694			  0.18260			 0.33964
	120.00			  9.98235			  0.15318			 0.13310
	120.25			  9.84992			  0.02674			 0.07244
	120.50			  9.87080			  0.16159			 0.05216
	120.75			  9.82940			  0.31142			 0.17357
	121.00			  9.87702			  0.45467			 0.27366
	121.25			  9.90851			  0.46709			 0.24143
	121.50			  10.10181			  0.61272			 0.23340
	121.75			  10.01051			  0.74611			 0.20240
	122.00			  9.95771			  0.60377			 0.16751
	122.25			  10.14425			  0.56723			 0.19320
	122.50			  10.24415			  0.34906			 0.01584
	122.75			  10.24257			  0.24710			 0.08316
	123.00			  10.26564			  0.24838			 0.15613
	123.25			  10.25669			  0.16944			 0.11318
	123.50			  10.34045			  0.11280			 0.30018
	123.75			  10.20802			  0.36349			 0.11626
	124.00			  10.15469			  0.37025			 0.12614
	124.25			  10.07769			  0.25879			 0.17832
	124.50			  10.03182			  0.03551			 0.14338
	124.75			  10.08698			  0.00317			 0.13289
	125.00			  10.12356			  0.10111			 0.11605
	125.25			  10.18372			  0.16963			 0.13427
	125.50			  10.09786			  0.07790			 0.17994
	125.75			  9.99998			  0.15684			 0.18015
	126.00			  9.94078			  0.42050			 0.17181
	126.25			  10.06655			  0.35308			 0.08000
	126.50			  10.00288			  0.44334			 0.25930
	126.75			  10.00402			  0.43603			 0.30741
	127.00			  10.02147			  0.55809			 0.31240
	127.25			  10.02208			  0.64232			 0.33674
	127.50			  10.18486			  0.51405			 0.37745
	127.75			  10.26651			  0.57819			 0.24230
	128.00			  10.27634			  0.59884			 0.16088
	128.25			  10.21073			  0.52301			 -0.03443
	128.50			  10.27651			  0.59208			 -0.02711
	128.75			  10.27116			  0.45942			 -0.06609
	129.00			  10.38255			  0.41210			 0.12253
	129.25			  10.26608			  0.28474			 0.14744
	129.50			  10.14759			  0.29168			 0.17295
	129.75			  10.18969			  0.22170			 0.12761
	130.00			  10.20258			  0.11865			 0.04463
	130.25			  10.19468			  0.04044			 -0.10082
	130.50			  10.24520			  0.01870			 -0.01627
	130.75			  10.11154			  0.06876			 0.07125
	131.00			  10.24047			  0.04556			 0.18424
	131.25			  10.34869			  0.06548			 0.29496
	131.50			  10.28616			  0.06310			 0.34328
	131.75			  10.24827			  -0.09331			 0.06778
	132.00			  10.18328			  -0.16293			 -0.13547
	132.25			  10.35869			  -0.11871			 -0.03723
	132.50			  10.41938			  0.21878			 0.14359
	132.75			  10.45464			  0.09252			 -0.02293
	133.00			  10.23827			  0.06621			 0.10461
	133.25			  10.19074			  0.21695			 0.14478
	133.50			  10.18644			  0.10257			 0.12794
	133.75			  10.11400			  -0.09404			 0.08122
	134.00			  10.10338			  -0.06956			 0.13576
	134.25			  10.11742			  0.07041			 0.14033
	134.50			  10.17074			  0.05670			 -0.02735
	134.75			  10.15399			  -0.00177			 -0.09374
	135.00			  10.15881			  -0.10592			 -0.21991
	135.25			  10.05971			  0.01815			 -0.21835
	135.50			  10.11321			  0.02071			 -0.16949
	135.75			  10.05129			  0.09361			 -0.24661
	136.00			  10.07137			  0.28712			 -0.24535
	136.25			  10.18004			  0.23285			 -0.27770
	136.50			  10.02480			  0.34833			 -0.22600
	136.75			  10.07076			  0.21001			 -0.18481
	137.00			  9.89377			  0.25971			 -0.12965
	137.25			  9.76923			  0.29040			 -0.15488
	137.50			  9.76196			  0.20891			 -0.08705
	137.75			  9.85010			  0.10385			 0.01656
	138.00			  9.94990			  0.17346			 0.03227
	138.25			  10.01156			  0.18662			 0.07265
	138.50			  9.93631			  0.21348			 0.06285
	138.75			  9.90965			  0.09197			 -0.00026
	139.00			  9.73354			  0.03661			 -0.18986
	139.25			  9.66952			  0.06036			 -0.29598
	139.50			  9.59848			  -0.10957			 -0.24013
	139.75			  9.76362			  -0.26159			 -0.40363
	140.00			  9.59637			  -0.38091			 -0.42143
	140.25			  9.59944			  -0.37287			 -0.45473
	140.50			  9.56997			  -0.29430			 -0.44610
	140.75			  9.56103			  -0.39918			 -0.27218
	141.00			  9.68162			  -0.16402			 0.08236
	141.25			  9.67153			  -0.12894			 -0.11152
	141.50			  9.70442			  0.07041			 -0.08885
	141.75			  9.65355			  0.06785			 -0.10145
	142.00			  9.63461			  0.16086			 -0.16456
	142.25			  9.58392			  0.21366			 -0.07045
	142.50			  9.56155			  0.27506			 -0.10291
	142.75			  9.56436			  0.38688			 0.06160
	143.00			  9.50349			  0.32092			 0.18352
	143.25			  9.40947			  0.19667			 0.25625
	143.50			  9.45841			  -0.05914			 0.15876
	143.75			  9.61672			  -0.17681			 0.12456
	144.00			  9.78379			  -0.03941			 0.12334
	144.25			  9.73415			  -0.18704			 0.17829
	144.50			  9.79555			  -0.14794			 0.19905
	144.75			  9.89649			  -0.19728			 0.10709
	145.00			  9.96744			  -0.11688			 0.24350
	145.25			  9.89781			  -0.11304			 0.25679
	145.50			  9.93412			  -0.14392			 0.22091
	145.75			  9.77529			  -0.20733			 0.17456
	146.00			  9.80914			  -0.09897			 0.15789
	146.25			  9.89211			  -0.06499			 0.07606
	146.50			  9.90544			  -0.11944			 0.16787
	146.75			  9.85817			  0.00938			 0.25906
	147.00			  9.92000			  0.13582			 0.27065
	147.25			  10.02919			  0.02875			 0.34179
	147.50			  9.99753			  -0.03210			 0.15117
	147.75			  9.85606			  -0.09514			 0.17101
	148.00			  10.09733			  -0.05201			 0.33008
	148.25			  10.16144			  0.00682			 0.45409
	148.50			  10.11049			  -0.04087			 0.22050
	148.75			  10.21240			  -0.11706			 0.06515
	149.00			  10.18530			  -0.11597			 -0.00572
	149.25			  10.04611			  -0.15927			 0.01032
	149.50			  9.94578			  -0.27877			 0.05625
	149.75			  9.97657			  -0.36903			 0.02337
	150.00			  10.03191			  -0.32427			 0.04502
	150.25			  9.92684			  -0.22962			 0.22313
	150.50			  9.93263			  -0.07431			 0.14604
	150.75			  10.03761			  -0.01748			 -0.01068
	151.00			  9.86439			  -0.09824			 0.00115
	151.25			  9.91175			  0.04812			 -0.14082
	151.50			  9.86518			  -0.04672			 -0.19240
	151.75			  9.83536			  -0.08088			 -0.22301
	152.00			  9.82931			  0.09855			 -0.17612
	152.25			  9.78221			  0.04264			 -0.08093
	152.50			  9.93675			  0.12815			 0.01297
	152.75			  10.04050			  0.04465			 0.04326
	153.00			  9.96639			  0.02382			 -0.08207
	153.25			  9.85089			  -0.05969			 -0.00599
	153.50			  10.00367			  -0.32061			 0.05831
	153.75			  9.96718			  -0.42239			 0.20305
	154.00			  10.01366			  -0.36246			 0.27205
	154.25			  10.01612			  -0.33030			 0.10798
	154.50			  10.10698			  -0.32043			 0.15497
	154.75			  10.09339			  -0.47556			 0.30141
	155.00			  10.02594			  -0.42458			 0.39445
	155.25			  10.07760			  -0.28699			 0.17575
	155.50			  10.03340			  -0.24990			 0.03302
	155.75			  9.97113			  -0.26689			 0.08236
	156.00			  9.92754			  -0.07723			 0.24735
	156.25			  9.90526			  -0.01620			 0.20807
	156.50			  9.98244			  -0.01309			 0.27283
	156.75			  10.16276			  0.00700			 0.37904
	157.00			  10.04655			  0.12742			 0.34508
	157.25			  10.10128			  0.20836			 0.28934
	157.50			  10.02235			  0.12797			 0.15676
	157.75			  9.94797			  0.13052			 0.16205
	158.00			  10.20863			  0.03058			 0.32500
	158.25			  10.22643			  -0.10793			 0.31781
	158.50			  10.15048			  -0.09093			 0.20753
	158.75			  10.15522			  -0.18175			 0.20052
	159.00			  10.17539			  -0.30198			 0.12226
	159.25			  10.30230			  -0.52252			 0.20114
	159.50			  10.34773			  -0.36648			 0.02402
	159.75			  10.39517			  -0.20166			 -0.17137
	160.00			  10.29081			  -0.38493			 -0.24410
	160.25			  10.18153			  -0.35021			 0.00437
	160.50			  10.34045			  -0.27566			 0.04640
	160.75			  10.14101			  -0.24259			 0.05336
	161.00			  10.18898			  -0.19472			 0.12220
	161.25			  10.06260			  -0.38968			 0.02486
	161.50			  10.15311			  -0.43902			 -0.03750
	161.75			  10.16627			  -0.39553			 0.05619
	162.00			  10.12987			  -0.26086			 0.21163
	162.25			  10.00972			  -0.08856			 0.27468
	162.50			  10.04287			  -0.18010			 0.16130
	162.75			  10.07541			  -0.33761			 0.19021
	163.00			  10.08093			  -0.39918			 0.13155
	163.25			  10.07620			  -0.28005			 0.08110
	163.50			  10.11286			  -0.26397			 0.25246
	163.75			  10.12224			  -0.11670			 0.17525
	164.00			  10.13373			  -0.11176			 0.11258
	164.25			  10.19933			  -0.12218			 0.04980
	164.50			  10.16671			  -0.12510			 0.20422
	164.75			  10.17986			  -0.03977			 0.26458
	165.00			  10.13154			  -0.09221			 0.13454
	165.25			  10.05418			  -0.00268			 0.20278
	165.50			  10.11663			  -0.15543			 0.15619