--------------TurbSim v2.00.* User Time Series Input File-----------------------
     Time series input from low-res turbsim run
--------------------------------------------------------------------------------
          3 nComp - Number of velocity components in the file
          1 nPoints - Number of time series points contained in this file (-)
          1 RefPtID - Index of the reference point (1-nPoints)
     Pointyi Pointzi ! nPoints listed in order of increasing height
       (m)     (m)
       0.22061   94.00000
--------Time Series-------------------------------------------------------------
Elapsed Time         Point01u             Point01v           Point01w
         (s)            (m/s)                (m/s)              (m/s)
	0.00			  10.27345			  0.14386			 -0.05700
	0.25			  10.22913			  0.12690			 0.11743
	0.50			  10.08898			  0.12540			 0.15915
	0.75			  10.21644			  0.15234			 0.13066
	1.00			  10.20715			  0.13837			 0.10384
	1.25			  10.16658			  0.10744			 0.12879
	1.50			  10.19404			  0.02445			 0.17037
	1.75			  10.15708			  0.06919			 0.18696
	2.00			  10.15611			  0.19076			 0.14985
	2.25			  10.10875			  0.23899			 0.13641
	2.50			  10.03718			  0.10727			 0.13736
	2.75			  10.06194			  0.13322			 0.12360
	3.00			  10.15375			  0.16648			 0.10139
	3.25			  10.19717			  0.16415			 0.18002
	3.50			  10.26637			  -0.01164			 0.15885
	3.75			  10.17657			  -0.06021			 0.08054
	4.00			  10.25160			  -0.00665			 0.08935
	4.25			  10.27178			  -0.10278			 0.12702
	4.50			  10.25979			  -0.07967			 -0.02107
	4.75			  10.39702			  -0.16981			 -0.07278
	5.00			  10.37955			  -0.21355			 0.05758
	5.25			  10.34050			  -0.25130			 0.15054
	5.50			  10.36741			  -0.23500			 0.08586
	5.75			  10.37885			  -0.27592			 -0.02389
	6.00			  10.36894			  -0.27059			 -0.06272
	6.25			  10.25770			  -0.40481			 -0.04071
	6.50			  10.16332			  -0.40614			 -0.05383
	6.75			  10.27428			  -0.20573			 -0.05769
	7.00			  10.21873			  -0.20673			 -0.03834
	7.25			  10.19092			  -0.29055			 0.01167
	7.50			  10.24508			  -0.33246			 -0.03242
	7.75			  10.33378			  -0.28274			 -0.09221
	8.00			  10.36596			  -0.28190			 0.02567
	8.25			  10.40507			  -0.21322			 0.05498
	8.50			  10.28655			  -0.18212			 -0.00057
	8.75			  10.20049			  -0.20008			 0.14634
	9.00			  10.28974			  -0.12740			 0.02144
	9.25			  10.29598			  -0.13971			 0.01268
	9.50			  10.28905			  -0.17762			 0.03329
	9.75			  10.19633			  -0.07850			 0.02312
	10.00			  10.15167			  -0.04790			 0.11834
	10.25			  10.17920			  -0.12457			 0.14281
	10.50			  10.14959			  -0.17230			 0.10494
	10.75			  10.07477			  -0.31284			 0.06939
	11.00			  10.06534			  -0.27226			 0.18993
	11.25			  10.06665			  -0.25596			 0.04735
	11.50			  10.13531			  -0.37770			 0.04388
	11.75			  10.12400			  -0.37687			 0.09049
	12.00			  10.11970			  -0.29903			 0.15002
	12.25			  10.02734			  -0.32697			 0.03225
	12.50			  10.00265			  -0.27176			 0.05803
	12.75			  10.05181			  -0.27542			 0.02896
	13.00			  10.02623			  -0.38319			 0.07621
	13.25			  9.98448			  -0.42310			 -0.03522
	13.50			  9.97401			  -0.39084			 -0.01887
	13.75			  9.99523			  -0.39782			 0.04470
	14.00			  9.94551			  -0.38419			 0.08633
	14.25			  9.97643			  -0.30569			 0.09575
	14.50			  9.91187			  -0.38369			 0.10777
	14.75			  9.93753			  -0.40165			 -0.03779
	15.00			  9.87623			  -0.26627			 -0.00124
	15.25			  9.84717			  -0.21205			 0.02200
	15.50			  9.92727			  -0.25879			 -0.03852
	15.75			  9.89558			  -0.24531			 0.05491
	16.00			  9.90431			  -0.07318			 0.03327
	16.25			  10.00771			  -0.15251			 0.08728
	16.50			  10.00674			  -0.12424			 0.11313
	16.75			  10.13226			  -0.06886			 0.15301
	17.00			  10.18087			  -0.11825			 0.08614
	17.25			  10.11742			  -0.03659			 0.01963
	17.50			  10.08690			  -0.06387			 -0.00427
	17.75			  10.15015			  -0.02179			 0.01914
	18.00			  10.26922			  -0.00150			 0.01953
	18.25			  10.22726			  -0.06087			 -0.11250
	18.50			  10.16499			  -0.04956			 -0.12129
	18.75			  10.07872			  -0.14486			 -0.14435
	19.00			  10.13891			  -0.13688			 -0.12992
	19.25			  10.18919			  -0.09463			 0.01197
	19.50			  10.27705			  -0.07202			 0.02472
	19.75			  10.21166			  -0.12191			 0.04879
	20.00			  10.20736			  -0.16698			 0.15941
	20.25			  10.24481			  -0.18661			 0.10624
	20.50			  10.16083			  -0.13987			 0.02808
	20.75			  10.16034			  -0.11725			 0.06714
	21.00			  10.21187			  -0.04108			 0.17328
	21.25			  10.23704			  -0.15916			 0.13424
	21.50			  10.22712			  -0.22270			 0.07092
	21.75			  10.33080			  -0.17313			 -0.00830
	22.00			  10.31873			  -0.01913			 0.09176
	22.25			  10.25881			  -0.18095			 0.21681
	22.50			  10.16319			  -0.14985			 0.22286
	22.75			  10.27026			  -0.33296			 0.19353
	23.00			  10.23101			  -0.38801			 0.24147
	23.25			  10.31984			  -0.44805			 0.18459
	23.50			  10.24411			  -0.41745			 0.11763
	23.75			  10.21818			  -0.43525			 -0.00195
	24.00			  10.24300			  -0.32248			 -0.03865
	24.25			  10.16145			  -0.26677			 -0.02536
	24.50			  10.09828			  -0.23267			 -0.08971
	24.75			  10.14710			  -0.16232			 -0.05796
	25.00			  10.22220			  -0.10611			 -0.05124
	25.25			  10.12872			  -0.06270			 0.00495
	25.50			  10.13392			  -0.11542			 0.04795
	25.75			  10.12678			  -0.12357			 0.08319
	26.00			  10.21672			  -0.12474			 0.02974
	26.25			  10.17636			  -0.09197			 -0.04390
	26.50			  10.20514			  -0.16482			 -0.05609
	26.75			  10.15930			  -0.19259			 -0.00707
	27.00			  10.20639			  -0.31251			 -0.09354
	27.25			  10.26339			  -0.32065			 0.00900
	27.50			  10.17886			  -0.29537			 -0.03471
	27.75			  10.13309			  -0.28473			 0.02181
	28.00			  10.20604			  -0.25213			 -0.03617
	28.25			  10.22990			  -0.21471			 -0.00134
	28.50			  10.11693			  -0.22652			 0.05900
	28.75			  10.25854			  -0.22918			 -0.08334
	29.00			  10.22629			  -0.28856			 -0.17803
	29.25			  10.18503			  -0.22186			 -0.16589
	29.50			  10.18697			  -0.20823			 -0.20690
	29.75			  10.20653			  -0.15567			 -0.20326
	30.00			  10.10216			  -0.07501			 -0.22430
	30.25			  10.15521			  -0.18012			 -0.20112
	30.50			  10.27837			  -0.27908			 -0.19975
	30.75			  10.43287			  -0.24864			 -0.23940
	31.00			  10.45645			  -0.09646			 -0.18101
	31.25			  10.33530			  -0.02412			 -0.24637
	31.50			  10.39799			  -0.03875			 -0.25624
	31.75			  10.31679			  -0.06886			 -0.07683
	32.00			  10.25653			  -0.08782			 -0.12378
	32.25			  10.16769			  -0.19026			 -0.08200
	32.50			  10.19647			  -0.21754			 -0.03639
	32.75			  10.23919			  -0.20673			 -0.03891
	33.00			  10.25049			  -0.20656			 -0.12932
	33.25			  10.16963			  -0.24448			 -0.08161
	33.50			  10.11735			  -0.18078			 -0.10617
	33.75			  10.27449			  -0.11709			 -0.07455
	34.00			  10.34030			  -0.22453			 -0.06427
	34.25			  10.29425			  -0.04424			 -0.05865
	34.50			  10.27678			  -0.14636			 -0.12503
	34.75			  10.26554			  -0.09813			 -0.09809
	35.00			  10.34487			  -0.05272			 -0.01067
	35.25			  10.40493			  0.00416			 0.05323
	35.50			  10.40597			  0.07916			 0.12719
	35.75			  10.48766			  -0.03260			 0.11603
	36.00			  10.47823			  0.00782			 0.11224
	36.25			  10.40312			  -0.12440			 0.04957
	36.50			  10.37663			  -0.10228			 0.01151
	36.75			  10.44966			  -0.03992			 0.04677
	37.00			  10.47219			  0.03127			 0.08528
	37.25			  10.47712			  0.08715			 0.01821
	37.50			  10.45923			  0.05854			 -0.00684
	37.75			  10.35042			  0.08232			 0.05239
	38.00			  10.27234			  0.16548			 0.10540
	38.25			  10.33530			  0.04623			 0.00568
	38.50			  10.27691			  -0.03077			 -0.04069
	38.75			  10.27185			  0.05205			 -0.00821
	39.00			  10.19744			  0.19176			 -0.15307
	39.25			  10.23378			  0.19375			 -0.14765
	39.50			  10.14772			  0.15151			 -0.12034
	39.75			  10.16117			  0.22835			 -0.09882
	40.00			  10.11846			  0.27608			 -0.05829
	40.25			  10.02304			  0.21920			 -0.10994
	40.50			  9.98753			  0.15450			 -0.17102
	40.75			  10.02255			  0.04973			 -0.11342
	41.00			  9.99571			  0.10145			 -0.21325
	41.25			  10.13656			  0.11509			 -0.09671
	41.50			  10.19217			  0.05322			 -0.00447
	41.75			  10.13884			  0.05272			 0.02569
	42.00			  10.11651			  -0.04906			 0.03368
	42.25			  10.11568			  -0.10411			 0.10423
	42.50			  10.22553			  0.04141			 0.06992
	42.75			  10.24210			  0.05638			 0.02732
	43.00			  10.33725			  -0.04208			 0.09891
	43.25			  10.31242			  -0.01181			 0.04621
	43.50			  10.37254			  -0.12590			 0.01823
	43.75			  10.24238			  -0.13056			 0.07507
	44.00			  10.15618			  -0.07035			 0.12198
	44.25			  10.15500			  0.02445			 0.14685
	44.50			  10.19890			  -0.11309			 0.09390
	44.75			  10.20944			  -0.11725			 0.12570
	45.00			  10.13565			  -0.10312			 0.07882
	45.25			  10.11312			  -0.13754			 0.09252
	45.50			  9.97463			  0.02594			 -0.02234
	45.75			  10.05362			  -0.08482			 0.00968
	46.00			  10.14266			  -0.07784			 -0.03109
	46.25			  10.23836			  -0.03992			 0.04966
	46.50			  10.17282			  0.00033			 0.16912
	46.75			  10.16450			  -0.06603			 0.03796
	47.00			  10.09023			  -0.21920			 -0.01351
	47.25			  10.10618			  -0.21721			 -0.07866
	47.50			  10.13274			  -0.11260			 0.05369
	47.75			  10.19689			  -0.03476			 0.09465
	48.00			  10.21235			  -0.09164			 0.12870
	48.25			  10.15687			  -0.05056			 -0.01377
	48.50			  10.04204			  -0.15600			 -0.06748
	48.75			  10.18170			  -0.13156			 -0.10765
	49.00			  10.20153			  -0.04973			 -0.09260
	49.25			  10.21755			  -0.02944			 -0.19012
	49.50			  10.23295			  -0.03709			 -0.10184
	49.75			  10.27192			  0.10278			 -0.19660
	50.00			  10.22851			  0.08066			 -0.24829
	50.25			  10.30479			  0.22319			 -0.19053
	50.50			  10.29862			  0.17479			 -0.01379
	50.75			  10.31096			  0.09879			 -0.01076
	51.00			  10.34945			  0.03642			 0.02024
	51.25			  10.32955			  -0.05938			 0.02043
	51.50			  10.43939			  -0.11027			 -0.00436
	51.75			  10.50285			  -0.16715			 0.00977
	52.00			  10.53717			  -0.20024			 -0.02626
	52.25			  10.49626			  -0.10045			 -0.08725
	52.50			  10.47677			  -0.06985			 -0.06033
	52.75			  10.55874			  -0.19625			 0.02345
	53.00			  10.60902			  -0.18029			 0.07094
	53.25			  10.43648			  -0.24149			 0.12392
	53.50			  10.46665			  -0.16282			 0.16699
	53.75			  10.50902			  -0.09813			 0.13187
	54.00			  10.43891			  -0.16532			 0.08631
	54.25			  10.28198			  -0.14037			 0.05104
	54.50			  10.32636			  -0.23683			 0.02381
	54.75			  10.42871			  -0.20390			 0.04093
	55.00			  10.48613			  -0.24432			 0.08326
	55.25			  10.42428			  -0.27425			 0.10852
	55.50			  10.35860			  -0.33446			 0.02028
	55.75			  10.45645			  -0.33529			 -0.01110
	56.00			  10.52046			  -0.28423			 0.05201
	56.25			  10.53572			  -0.18710			 0.01712
	56.50			  10.48974			  -0.13222			 -0.03483
	56.75			  10.59099			  -0.04840			 -0.02430
	57.00			  10.56463			  -0.02728			 -0.01747
	57.25			  10.48648			  0.02245			 -0.03432
	57.50			  10.40375			  0.00765			 0.04619
	57.75			  10.31665			  -0.11443			 -0.03173
	58.00			  10.34966			  -0.15451			 -0.08571
	58.25			  10.47386			  -0.16781			 -0.07386
	58.50			  10.48898			  -0.18494			 0.00189
	58.75			  10.44023			  -0.16033			 0.06109
	59.00			  10.46644			  -0.19875			 -0.03117
	59.25			  10.53898			  -0.23733			 -0.06529
	59.50			  10.64632			  -0.27226			 -0.01590
	59.75			  10.69861			  -0.24365			 -0.04857
	60.00			  10.65277			  -0.26078			 -0.06161
	60.25			  10.70818			  -0.19609			 -0.11299
	60.50			  10.73016			  -0.21139			 -0.23078
	60.75			  10.61359			  -0.20423			 -0.25206
	61.00			  10.65222			  -0.09530			 -0.12322
	61.25			  10.70943			  -0.16382			 -0.09247
	61.50			  10.66623			  -0.28939			 -0.11831
	61.75			  10.55541			  -0.33147			 -0.06046
	62.00			  10.46796			  -0.36922			 0.01800
	62.25			  10.36297			  -0.36124			 0.03605
	62.50			  10.32525			  -0.30286			 0.07003
	62.75			  10.35479			  -0.24398			 0.07216
	63.00			  10.38475			  -0.20540			 0.09988
	63.25			  10.29328			  -0.14719			 0.11328
	63.50			  10.24356			  -0.20773			 0.05877
	63.75			  10.28142			  -0.28473			 -0.10517
	64.00			  10.22782			  -0.18295			 -0.09361
	64.25			  10.20639			  -0.20573			 -0.05189
	64.50			  10.14509			  -0.17097			 -0.00877
	64.75			  10.05778			  -0.18877			 -0.07031
	65.00			  10.11769			  -0.22802			 -0.03135
	65.25			  10.23642			  -0.15733			 -0.07744
	65.50			  10.16457			  -0.15750			 -0.10248
	65.75			  10.12456			  -0.20257			 0.03101
	66.00			  10.07990			  -0.19991			 -0.08883
	66.25			  10.17983			  -0.20041			 -0.17269
	66.50			  10.09377			  -0.35525			 -0.07823
	66.75			  10.06548			  -0.32215			 -0.03774
	67.00			  10.07407			  -0.14752			 -0.11345
	67.25			  9.95383			  -0.03526			 -0.09178
	67.50			  9.89294			  -0.12806			 -0.14442
	67.75			  9.83601			  -0.06420			 -0.18839
	68.00			  9.78407			  -0.03393			 -0.14218
	68.25			  9.75772			  -0.13538			 -0.18951
	68.50			  9.77942			  -0.10960			 -0.09813
	68.75			  9.86597			  -0.10278			 -0.15658
	69.00			  9.89259			  -0.09547			 -0.07769
	69.25			  9.89544			  -0.16582			 0.01123
	69.50			  9.88379			  -0.18627			 0.00658
	69.75			  9.85307			  -0.17663			 -0.01336
	70.00			  9.88233			  -0.24315			 0.05976
	70.25			  9.98926			  -0.27010			 -0.07929
	70.50			  9.95605			  -0.18494			 -0.14534
	70.75			  9.81957			  -0.15950			 -0.16251
	71.00			  9.92623			  -0.16465			 -0.11706
	71.25			  9.97463			  -0.10428			 -0.08228
	71.50			  10.04599			  -0.19559			 -0.07898
	71.75			  10.11319			  -0.13971			 -0.06079
	72.00			  10.12130			  -0.22436			 -0.03819
	72.25			  10.14203			  -0.32232			 0.06878
	72.50			  10.14141			  -0.32648			 0.03768
	72.75			  9.98205			  -0.31300			 -0.02738
	73.00			  10.05646			  -0.37288			 0.05485
	73.25			  9.95147			  -0.43608			 0.10481
	73.50			  10.01617			  -0.30552			 0.00044
	73.75			  10.03684			  -0.33130			 -0.08267
	74.00			  10.11603			  -0.45969			 0.01920
	74.25			  10.05993			  -0.24531			 0.07356
	74.50			  10.11950			  -0.13837			 0.03867
	74.75			  10.11728			  -0.16365			 -0.02598
	75.00			  10.12199			  -0.22785			 -0.11011
	75.25			  10.13253			  -0.36573			 -0.05161
	75.50			  10.02484			  -0.30685			 0.06015
	75.75			  10.07865			  -0.31400			 0.08629
	76.00			  10.02290			  -0.32697			 0.03219
	76.25			  10.04093			  -0.39816			 0.09532
	76.50			  10.03621			  -0.36955			 0.07176
	76.75			  10.01749			  -0.44073			 -0.02534
	77.00			  10.00390			  -0.48946			 0.02887
	77.25			  9.95854			  -0.40065			 0.08052
	77.50			  10.03746			  -0.36589			 0.14326
	77.75			  9.96804			  -0.40863			 0.21603
	78.00			  10.04731			  -0.25845			 0.26985
	78.25			  10.06125			  -0.20922			 0.20348
	78.50			  10.10639			  -0.21172			 0.11548
	78.75			  10.14432			  -0.19426			 0.05142
	79.00			  10.12997			  -0.21072			 0.00953
	79.25			  10.04883			  -0.17912			 0.01408
	79.50			  10.05667			  -0.09347			 -0.02185
	79.75			  10.05584			  -0.09430			 0.05916
	80.00			  10.01686			  -0.08931			 0.09751
	80.25			  10.06776			  -0.03277			 0.07905
	80.50			  10.03385			  -0.00000			 0.01830
	80.75			  10.17276			  -0.00948			 0.03562
	81.00			  10.15389			  0.03942			 0.08577
	81.25			  10.14800			  -0.11160			 -0.01157
	81.50			  10.17858			  -0.23334			 -0.01872
	81.75			  10.17338			  -0.20590			 0.02803
	82.00			  10.27775			  -0.20274			 0.13710
	82.25			  10.35285			  -0.28357			 0.06112
	82.50			  10.35424			  -0.40730			 0.00270
	82.75			  10.30874			  -0.39333			 -0.12187
	83.00			  10.18579			  -0.36905			 -0.09876
	83.25			  10.15833			  -0.47599			 -0.04900
	83.50			  10.17997			  -0.43724			 -0.06208
	83.75			  10.27137			  -0.43974			 -0.10765
	84.00			  10.28420			  -0.55366			 -0.08508
	84.25			  10.25160			  -0.53088			 -0.06581
	84.50			  10.14079			  -0.45703			 0.01378
	84.75			  10.10785			  -0.54751			 0.02558
	85.00			  10.22414			  -0.56314			 -0.11737
	85.25			  10.17324			  -0.42360			 -0.16249
	85.50			  10.01236			  -0.32016			 -0.07948
	85.75			  10.00341			  -0.33995			 -0.11984
	86.00			  10.04377			  -0.23367			 -0.05153
	86.25			  9.99994			  -0.26444			 0.04042
	86.50			  9.95515			  -0.17846			 -0.12867
	86.75			  9.98594			  -0.29521			 -0.00279
	87.00			  9.88712			  -0.37205			 0.02849
	87.25			  9.96194			  -0.37687			 0.01027
	87.50			  9.97290			  -0.35192			 0.10708
	87.75			  9.99204			  -0.42527			 0.05483
	88.00			  10.02019			  -0.43525			 -0.08480
	88.25			  9.97519			  -0.56048			 -0.09135
	88.50			  9.99883			  -0.67324			 -0.05896
	88.75			  9.97318			  -0.58277			 -0.07113
	89.00			  9.93774			  -0.62551			 -0.06305
	89.25			  9.88802			  -0.49728			 -0.06216
	89.50			  9.93288			  -0.44655			 -0.13768
	89.75			  10.05542			  -0.60372			 -0.15516
	90.00			  10.10029			  -0.54634			 -0.16703
	90.25			  10.04322			  -0.46734			 -0.25578
	90.50			  9.98469			  -0.42527			 -0.14394
	90.75			  9.93947			  -0.35425			 -0.12943
	91.00			  9.88150			  -0.38951			 -0.26944
	91.25			  9.98587			  -0.31101			 -0.23569
	91.50			  9.99301			  -0.38236			 -0.22697
	91.75			  10.00896			  -0.47134			 -0.26194
	92.00			  10.01430			  -0.45371			 -0.27586
	92.25			  9.98808			  -0.45221			 -0.26658
	92.50			  10.01014			  -0.32598			 -0.26279
	92.75			  10.03899			  -0.30918			 -0.17827
	93.00			  10.07428			  -0.32465			 -0.18478
	93.25			  10.11291			  -0.34377			 -0.18249
	93.50			  10.08635			  -0.41645			 -0.13014
	93.75			  9.98691			  -0.48547			 -0.15129
	94.00			  9.99911			  -0.44023			 -0.06960
	94.25			  10.03774			  -0.41895			 -0.07485
	94.50			  9.92657			  -0.32332			 -0.04192
	94.75			  9.94703			  -0.32980			 -0.04692
	95.00			  9.98469			  -0.42976			 -0.12969
	95.25			  10.03559			  -0.46784			 -0.04931
	95.50			  10.02657			  -0.42094			 -0.09678
	95.75			  9.95736			  -0.31916			 -0.04444
	96.00			  9.96028			  -0.34893			 0.07324
	96.25			  9.91548			  -0.37820			 0.08043
	96.50			  9.97214			  -0.45304			 -0.04468
	96.75			  9.98566			  -0.57961			 -0.16847
	97.00			  9.94946			  -0.52073			 -0.23851
	97.25			  9.81444			  -0.50626			 -0.33507
	97.50			  9.85938			  -0.40381			 -0.24739
	97.75			  9.98379			  -0.36822			 -0.18706
	98.00			  10.08399			  -0.26610			 -0.19546
	98.25			  10.10202			  -0.24531			 -0.25299
	98.50			  10.12997			  -0.26960			 -0.15355
	98.75			  10.18642			  -0.28290			 -0.10716
	99.00			  10.18662			  -0.22353			 -0.02443
	99.25			  10.19800			  -0.25446			 0.01867
	99.50			  10.20597			  -0.10395			 0.04955
	99.75			  10.15875			  -0.15700			 0.09278
	100.00			  10.16735			  -0.19326			 0.04916
	100.25			  10.14786			  -0.20972			 0.00135
	100.50			  10.26929			  -0.18561			 0.09850
	100.75			  10.24633			  -0.10960			 0.19674
	101.00			  10.08066			  -0.11060			 0.07145
	101.25			  9.99211			  -0.09014			 0.08358
	101.50			  9.97727			  -0.07551			 0.13159
	101.75			  9.86049			  -0.08682			 0.19659
	102.00			  9.84884			  0.07617			 0.12980
	102.25			  9.93053			  0.03443			 0.09021
	102.50			  9.90612			  0.00249			 0.04373
	102.75			  9.92082			  0.03592			 0.08739
	103.00			  10.03940			  0.09064			 0.08250
	103.25			  10.02345			  0.04973			 -0.00765
	103.50			  10.04072			  0.13854			 -0.06667
	103.75			  9.94363			  0.09979			 -0.07974
	104.00			  9.90334			  0.01929			 -0.12195
	104.25			  9.97220			  -0.11625			 -0.14144
	104.50			  9.98275			  -0.09813			 -0.06160
	104.75			  10.08531			  -0.28490			 -0.16317
	105.00			  10.14453			  -0.33379			 -0.23067
	105.25			  10.11423			  -0.19758			 -0.25994
	105.50			  10.08177			  -0.12973			 -0.26979
	105.75			  10.13704			  -0.14054			 -0.13261
	106.00			  10.12796			  -0.04441			 -0.06537
	106.25			  10.07761			  -0.15284			 -0.04478
	106.50			  10.15285			  -0.11393			 -0.05661
	106.75			  10.16450			  -0.04690			 -0.06356
	107.00			  10.17338			  0.01463			 0.03798
	107.25			  10.12539			  0.01447			 0.05401
	107.50			  10.09079			  -0.07285			 0.02728
	107.75			  10.04980			  -0.00582			 -0.01683
	108.00			  9.97352			  0.07867			 -0.04825
	108.25			  9.94003			  -0.00915			 0.10654
	108.50			  10.03489			  0.13122			 0.09734
	108.75			  9.97997			  0.14303			 0.01065
	109.00			  9.86818			  0.13488			 -0.04425
	109.25			  9.91631			  0.24465			 0.00467
	109.50			  9.88122			  0.31566			 -0.09843
	109.75			  9.82533			  0.30618			 -0.10057
	110.00			  9.92151			  0.22702			 -0.05404
	110.25			  9.95951			  0.25845			 -0.00720
	110.50			  9.91479			  0.26045			 -0.14590
	110.75			  9.97290			  0.06320			 -0.29048
	111.00			  9.94030			  0.10760			 -0.17816
	111.25			  9.91617			  0.23367			 -0.24028
	111.50			  9.86624			  0.21820			 -0.29046
	111.75			  9.89363			  0.16731			 -0.18460
	112.00			  9.85570			  0.12906			 -0.09510
	112.25			  9.88275			  0.06952			 -0.10978
	112.50			  9.98628			  0.01463			 -0.16899
	112.75			  9.91007			  -0.02661			 -0.20147
	113.00			  9.95154			  -0.03426			 -0.06492
	113.25			  9.85279			  -0.08133			 -0.15407
	113.50			  9.80882			  -0.03143			 -0.19666
	113.75			  9.84925			  -0.09098			 -0.27022
	114.00			  9.84481			  0.02145			 -0.20871
	114.25			  9.81909			  0.01347			 -0.20283
	114.50			  9.80986			  -0.00499			 -0.11222
	114.75			  9.81888			  0.10777			 -0.13677
	115.00			  9.83205			  0.03193			 -0.07860
	115.25			  9.87075			  -0.05405			 -0.11071
	115.50			  9.96603			  -0.11409			 -0.14706
	115.75			  9.96624			  -0.02195			 -0.07616
	116.00			  9.88455			  -0.07784			 -0.13912
	116.25			  9.98781			  -0.07651			 -0.18717
	116.50			  10.02109			  -0.04208			 -0.09283
	116.75			  9.99738			  0.08116			 -0.08411
	117.00			  9.94981			  0.12224			 -0.06524
	117.25			  9.95674			  0.01912			 -0.19820
	117.50			  9.86943			  0.01646			 -0.20384
	117.75			  9.95376			  0.06153			 -0.23933
	118.00			  9.93330			  0.03426			 -0.10724
	118.25			  9.98268			  0.18577			 -0.08073
	118.50			  9.98205			  0.08083			 -0.14756
	118.75			  10.10036			  0.08099			 -0.07328
	119.00			  10.13184			  0.04407			 0.03370
	119.25			  10.09939			  0.05422			 -0.14192
	119.50			  10.08649			  0.07767			 -0.21396
	119.75			  10.01076			  0.01098			 -0.05936
	120.00			  10.01874			  -0.15767			 -0.03520
	120.25			  9.95792			  -0.24515			 -0.02796
	120.50			  10.02096			  -0.20407			 -0.07276
	120.75			  9.96340			  -0.17812			 -0.03387
	121.00			  9.99849			  -0.20856			 -0.08084
	121.25			  10.03129			  -0.26128			 -0.07018
	121.50			  10.03801			  -0.29122			 -0.06654
	121.75			  9.95938			  -0.34061			 -0.09382
	122.00			  9.96118			  -0.24648			 -0.07345
	122.25			  9.91458			  -0.20739			 -0.04162
	122.50			  9.99759			  -0.14187			 0.03732
	122.75			  10.02990			  -0.01863			 0.02377
	123.00			  10.03649			  -0.03942			 0.02017
	123.25			  10.02817			  -0.08349			 0.06409
	123.50			  10.05660			  0.02977			 0.00723
	123.75			  10.01624			  0.11658			 -0.02351
	124.00			  10.02463			  0.05987			 0.06658
	124.25			  9.97311			  0.06220			 0.05565
	124.50			  10.04939			  0.22003			 0.02041
	124.75			  9.97810			  0.11841			 0.05257
	125.00			  9.94065			  0.07733			 -0.11198
	125.25			  10.02206			  -0.00898			 -0.09789
	125.50			  10.07650			  -0.06420			 -0.06665
	125.75			  10.06638			  -0.00549			 -0.13246
	126.00			  10.01991			  0.20190			 -0.18137
	126.25			  10.10986			  0.24348			 -0.13457
	126.50			  10.03399			  0.31500			 -0.03311
	126.75			  9.90771			  0.21404			 -0.03959
	127.00			  9.87755			  0.21787			 -0.07050
	127.25			  9.91132			  0.21438			 0.01684
	127.50			  10.00875			  0.25945			 0.01606
	127.75			  10.01742			  0.17746			 -0.02947
	128.00			  10.04231			  0.13654			 -0.07543
	128.25			  9.96416			  0.15534			 -0.04817
	128.50			  9.90112			  0.06519			 0.00648
	128.75			  9.85002			  -0.04690			 0.00126
	129.00			  9.86215			  -0.14037			 -0.04670
	129.25			  9.88621			  -0.10578			 0.05498
	129.50			  9.94502			  -0.16216			 0.10051
	129.75			  10.03122			  -0.20041			 -0.01776
	130.00			  9.97928			  -0.19708			 0.06280
	130.25			  9.97616			  -0.29155			 -0.09880
	130.50			  9.82179			  -0.19209			 0.04236
	130.75			  9.86493			  -0.13555			 0.07344
	131.00			  9.80140			  -0.24831			 0.07570
	131.25			  9.87581			  -0.22868			 0.12226
	131.50			  9.89412			  -0.14702			 0.14405
	131.75			  9.81451			  -0.27725			 0.05776
	132.00			  9.72380			  -0.20606			 0.06531
	132.25			  9.80806			  -0.16216			 0.08957
	132.50			  9.82990			  -0.21039			 0.15737
	132.75			  9.72588			  -0.15334			 0.03062
	133.00			  9.67505			  -0.24365			 0.00971
	133.25			  9.73254			  -0.29155			 0.00925
	133.50			  9.73615			  -0.25213			 -0.09372
	133.75			  9.66971			  -0.32082			 -0.05545
	134.00			  9.69086			  -0.25596			 -0.07364
	134.25			  9.76063			  -0.21105			 0.02797
	134.50			  9.68435			  -0.10578			 0.02926
	134.75			  9.74281			  -0.10644			 -0.00714
	135.00			  9.78850			  -0.09746			 -0.02346
	135.25			  9.83011			  -0.10179			 -0.02279
	135.50			  9.76687			  -0.10761			 0.11925
	135.75			  9.79551			  -0.12158			 0.19594
	136.00			  9.75938			  -0.16981			 0.13613
	136.25			  9.72845			  -0.23750			 0.13445
	136.50			  9.72699			  -0.35026			 0.18579
	136.75			  9.68594			  -0.24881			 0.17345
	137.00			  9.76250			  -0.31483			 0.31052
	137.25			  9.82151			  -0.33180			 0.23346
	137.50			  9.83739			  -0.44439			 0.20221
	137.75			  9.75619			  -0.27076			 0.17123
	138.00			  9.73684			  -0.28456			 0.11771
	138.25			  9.68532			  -0.24964			 0.19538
	138.50			  9.61978			  -0.30818			 0.25179
	138.75			  9.64038			  -0.15218			 0.21898
	139.00			  9.66028			  -0.14669			 0.21668
	139.25			  9.60911			  -0.04374			 0.19538
	139.50			  9.65633			  -0.03143			 0.26292
	139.75			  9.68012			  -0.13039			 0.26303
	140.00			  9.71021			  -0.03459			 0.26410
	140.25			  9.51070			  0.03359			 0.24703
	140.50			  9.61028			  -0.04274			 0.10242
	140.75			  9.61812			  -0.00882			 0.08425
	141.00			  9.75154			  -0.00333			 0.13393
	141.25			  9.71118			  0.00083			 0.20729
	141.50			  9.73899			  -0.08665			 0.15120
	141.75			  9.64586			  -0.03726			 0.11440
	142.00			  9.63088			  -0.07551			 0.20012
	142.25			  9.80085			  -0.10993			 0.14535
	142.50			  9.85868			  -0.08765			 -0.01091
	142.75			  9.84717			  -0.18511			 0.02373
	143.00			  9.74489			  -0.08515			 -0.01454
	143.25			  9.80244			  -0.09397			 0.08571
	143.50			  9.81153			  -0.11925			 0.16408
	143.75			  9.83996			  0.09363			 0.15868
	144.00			  9.82720			  -0.02212			 0.10221
	144.25			  9.81056			  0.02228			 0.11041
	144.50			  9.91368			  -0.01913			 -0.00854
	144.75			  9.90605			  0.13039			 0.03816
	145.00			  9.89128			  0.17479			 -0.04795
	145.25			  9.84606			  0.14270			 0.03324
	145.50			  9.83448			  0.27076			 0.03284
	145.75			  9.84190			  0.29537			 -0.05306
	146.00			  9.86139			  0.24614			 -0.03294
	146.25			  9.87782			  0.13671			 -0.06781
	146.50			  9.97720			  0.09430			 0.02192
	146.75			  9.85265			  0.07817			 0.14089
	147.00			  9.73032			  0.06287			 0.10143
	147.25			  9.70446			  0.13654			 0.06799
	147.50			  9.71826			  0.18028			 0.04597
	147.75			  9.75695			  0.25130			 0.03506
	148.00			  9.77221			  0.33030			 0.22366
	148.25			  9.80237			  0.30785			 0.29217
	148.50			  9.82366			  0.31616			 0.28788
	148.75			  9.72727			  0.15334			 0.25325
	149.00			  9.71243			  0.08848			 0.15342
	149.25			  9.72831			  0.07983			 0.12478
	149.50			  9.70987			  0.03127			 0.20283
	149.75			  9.82602			  0.09247			 0.28825
	150.00			  9.87026			  0.12723			 0.24754
	150.25			  9.83157			  0.08099			 0.20944
	150.50			  9.81680			  0.00948			 0.09529
	150.75			  9.88420			  0.00565			 0.11985
	151.00			  9.77554			  0.03326			 0.10003
	151.25			  9.78344			  -0.07085			 0.08511
	151.50			  9.76278			  -0.04308			 0.01789
	151.75			  9.75910			  0.04956			 0.06264
	152.00			  9.71222			  0.13355			 0.24255
	152.25			  9.62249			  0.16714			 0.23537
	152.50			  9.70356			  0.20091			 0.17875
	152.75			  9.82789			  0.08598			 0.14875
	153.00			  9.86042			  -0.00283			 0.12299
	153.25			  9.91818			  0.01513			 0.31765
	153.50			  10.02089			  0.03276			 0.25151
	153.75			  10.05383			  -0.02744			 0.27349
	154.00			  9.98226			  -0.10029			 0.27481
	154.25			  10.07179			  -0.08332			 0.24606
	154.50			  10.08455			  -0.11476			 0.30671
	154.75			  10.02505			  -0.20241			 0.26339
	155.00			  10.09578			  -0.19276			 0.35364
	155.25			  9.97851			  -0.06869			 0.30040
	155.50			  9.96929			  -0.06619			 0.29109
	155.75			  9.88289			  -0.05322			 0.28022
	156.00			  9.87408			  -0.03310			 0.35969
	156.25			  9.88074			  0.03858			 0.46145
	156.50			  9.86430			  -0.02694			 0.40967
	156.75			  9.87866			  -0.18794			 0.36768
	157.00			  9.75709			  -0.16715			 0.27126
	157.25			  9.74780			  -0.15185			 0.23815
	157.50			  9.76638			  -0.02312			 0.28471
	157.75			  9.75674			  0.00083			 0.34086
	158.00			  9.85022			  0.01430			 0.32583
	158.25			  9.82477			  0.09180			 0.41616
	158.50			  9.91492			  0.15101			 0.25024
	158.75			  9.89474			  0.10528			 0.30261
	159.00			  9.90938			  0.04208			 0.19491
	159.25			  9.86076			  0.09746			 0.22986
	159.50			  9.81992			  0.01796			 0.10738
	159.75			  9.77186			  -0.00981			 0.08425
	160.00			  9.70543			  -0.00316			 0.10791
	160.25			  9.74378			  0.09047			 0.05692
	160.50			  9.70522			  0.20473			 0.08179
	160.75			  9.60675			  0.22003			 0.02739
	161.00			  9.57970			  0.21820			 0.09506
	161.25			  9.62963			  0.21787			 0.11291
	161.50			  9.62103			  0.36606			 0.06475
	161.75			  9.57110			  0.32148			 0.07240
	162.00			  9.56549			  0.19808			 -0.10003
	162.25			  9.65515			  0.19259			 -0.17466
	162.50			  9.60959			  0.11542			 -0.18062
	162.75			  9.59683			  0.04690			 -0.19910
	163.00			  9.70134			  0.00865			 -0.17564
	163.25			  9.73157			  0.07068			 -0.33560
	163.50			  9.64496			  0.08216			 -0.30140
	163.75			  9.60279			  0.07650			 -0.24248
	164.00			  9.65474			  0.01696			 -0.17915
	164.25			  9.65876			  0.03626			 -0.16681
	164.50			  9.64745			  0.15883			 -0.20582
	164.75			  9.64461			  0.29304			 -0.23345
	165.00			  9.64204			  0.30169			 -0.19374
	165.25			  9.53886			  0.24564			 -0.10744