--------------TurbSim v2.00.* User Time Series Input File-----------------------
     Time series input from low-res turbsim run
--------------------------------------------------------------------------------
          3 nComp - Number of velocity components in the file
          1 nPoints - Number of time series points contained in this file (-)
          1 RefPtID - Index of the reference point (1-nPoints)
     Pointyi Pointzi ! nPoints listed in order of increasing height
       (m)     (m)
       -3.86487   94.00000
--------Time Series-------------------------------------------------------------
Elapsed Time         Point01u             Point01v           Point01w
         (s)            (m/s)                (m/s)              (m/s)
	0.00			  10.73303			  0.87410			 -0.09451
	0.25			  10.78842			  0.98569			 -0.15569
	0.50			  10.54859			  0.78758			 -0.24632
	0.75			  10.56247			  0.56933			 -0.41253
	1.00			  10.50396			  0.57693			 -0.33602
	1.25			  10.44431			  0.66756			 -0.13132
	1.50			  10.46232			  0.31347			 0.01462
	1.75			  10.53309			  0.47747			 -0.05970
	2.00			  10.72365			  0.04651			 -0.14586
	2.25			  10.63687			  0.22572			 0.10115
	2.50			  10.45169			  0.46699			 -0.08342
	2.75			  10.56635			  0.31635			 -0.07522
	3.00			  10.33077			  0.36320			 -0.22768
	3.25			  10.37779			  0.62523			 -0.41430
	3.50			  10.33890			  0.30587			 -0.72379
	3.75			  10.56573			  0.14331			 -0.77081
	4.00			  10.55560			  -0.02583			 -0.67995
	4.25			  10.66538			  0.16674			 -0.43834
	4.50			  10.67726			  0.24277			 -0.44762
	4.75			  10.77879			  0.14064			 -0.33490
	5.00			  10.83369			  0.16961			 -0.10308
	5.25			  10.79255			  0.46719			 -0.35559
	5.50			  10.53697			  0.75080			 -0.34795
	5.75			  10.57385			  0.71052			 -0.22004
	6.00			  10.43881			  0.82416			 -0.29175
	6.25			  10.38342			  1.02865			 -0.20140
	6.50			  10.33728			  0.96206			 -0.17750
	6.75			  10.27488			  0.88684			 -0.15970
	7.00			  10.42418			  1.10962			 0.02375
	7.25			  10.31389			  1.07509			 -0.14423
	7.50			  10.19373			  1.07961			 -0.42297
	7.75			  10.43331			  0.99474			 -0.26570
	8.00			  10.48783			  0.95076			 -0.13556
	8.25			  10.36966			  0.92137			 -0.19027
	8.50			  10.43581			  1.25717			 -0.21384
	8.75			  10.36691			  1.21792			 -0.37604
	9.00			  10.39792			  1.14681			 -0.43760
	9.25			  10.43118			  1.21093			 -0.03338
	9.50			  10.25075			  1.09646			 -0.37008
	9.75			  9.93327			  0.99186			 -0.33826
	10.00			  9.72821			  0.82314			 -0.09129
	10.25			  9.75121			  0.82457			 -0.23560
	10.50			  9.78835			  0.82272			 0.06499
	10.75			  9.67706			  0.98713			 0.04360
	11.00			  9.39397			  1.27238			 -0.17163
	11.25			  9.43361			  1.26498			 -0.45386
	11.50			  9.42436			  1.04098			 -0.51984
	11.75			  9.81273			  0.87760			 -0.47338
	12.00			  9.79398			  0.33505			 -0.30862
	12.25			  9.71358			  0.47418			 -0.43667
	12.50			  9.81774			  0.67229			 -0.34646
	12.75			  9.82936			  0.55905			 -0.40531
	13.00			  9.91389			  0.45424			 -0.31612
	13.25			  9.82599			  0.53686			 -0.11343
	13.50			  9.86625			  0.47808			 0.30566
	13.75			  9.81011			  0.46945			 0.12808
	14.00			  9.98329			  0.26415			 -0.06744
	14.25			  10.07032			  0.25367			 0.06550
	14.50			  10.24200			  0.06727			 0.22836
	14.75			  10.17598			  -0.03960			 -0.06595
	15.00			  10.30652			  -0.12262			 0.00325
	15.25			  10.53909			  -0.02603			 -0.00756
	15.50			  10.43643			  0.10077			 0.10124
	15.75			  10.36229			  0.02103			 0.16485
	16.00			  10.29301			  0.21770			 -0.09199
	16.25			  10.08695			  0.23291			 -0.04889
	16.50			  10.18223			  -0.10803			 0.08894
	16.75			  10.18735			  0.04117			 -0.02443
	17.00			  9.82611			  -0.02480			 -0.25359
	17.25			  9.94428			  0.02966			 -0.24590
	17.50			  10.02580			  0.16653			 -0.18700
	17.75			  9.86250			  0.23579			 -0.16934
	18.00			  10.00292			  -0.00877			 -0.25177
	18.25			  9.97466			  0.03336			 -0.21496
	18.50			  9.99167			  0.31820			 0.02319
	18.75			  9.80336			  0.41088			 0.18609
	19.00			  10.01617			  0.11556			 0.21550
	19.25			  9.90264			  0.22037			 0.20366
	19.50			  9.73608			  0.44356			 0.10735
	19.75			  9.37684			  0.61393			 0.00330
	20.00			  9.71470			  0.83773			 -0.10984
	20.25			  10.04293			  0.53994			 -0.05989
	20.50			  10.02380			  0.53213			 -0.22381
	20.75			  10.03180			  0.60838			 -0.37139
	21.00			  10.20311			  0.66715			 -0.10881
	21.25			  10.26363			  0.73867			 -0.16431
	21.50			  10.07832			  0.64455			 -0.36640
	21.75			  9.79010			  0.42506			 -0.35293
	22.00			  10.00717			  0.58577			 -0.46099
	22.25			  10.20686			  0.72613			 -0.24455
	22.50			  10.04406			  0.88540			 0.06122
	22.75			  9.90539			  0.71894			 0.05488
	23.00			  9.99479			  0.52186			 -0.05667
	23.25			  10.30214			  0.37492			 -0.07228
	23.50			  10.20598			  0.27792			 -0.01711
	23.75			  10.16622			  0.01240			 -0.01427
	24.00			  10.39717			  -0.19825			 -0.06842
	24.25			  10.21411			  -0.37787			 -0.14395
	24.50			  9.98079			  0.12851			 0.00204
	24.75			  10.04281			  0.37019			 0.03722
	25.00			  10.09570			  0.33382			 -0.03272
	25.25			  10.13846			  -0.11543			 -0.09013
	25.50			  10.01530			  -0.38547			 -0.15914
	25.75			  9.71233			  -0.48822			 -0.17941
	26.00			  9.80098			  -0.35649			 -0.49729
	26.25			  9.66944			  -0.57618			 -0.29357
	26.50			  9.69970			  -0.52686			 -0.20755
	26.75			  9.64505			  -0.57598			 -0.23994
	27.00			  9.84824			  -0.59941			 -0.47674
	27.25			  10.19173			  -0.60783			 -0.52939
	27.50			  10.44231			  -0.34355			 -0.45363
	27.75			  10.37967			  -0.37540			 -0.52632
	28.00			  10.18085			  -0.23463			 -0.65646
	28.25			  10.10858			  -0.23051			 -0.62482
	28.50			  10.13409			  -0.09303			 -0.64029
	28.75			  10.28964			  -0.03795			 -0.54962
	29.00			  10.08832			  -0.00281			 -0.44463
	29.25			  9.98579			  0.00089			 -0.66317
	29.50			  10.02793			  -0.16393			 -0.45945
	29.75			  10.00067			  -0.22702			 -0.37842
	30.00			  10.09457			  -0.61317			 -0.14167
	30.25			  9.93602			  -0.47199			 0.08908
	30.50			  9.85887			  -0.24511			 0.45495
	30.75			  9.78698			  -0.26771			 0.26055
	31.00			  9.62380			  -0.14256			 0.15320
	31.25			  9.72421			  0.15626			 0.25827
	31.50			  9.80898			  -0.03035			 -0.06958
	31.75			  9.83011			  -0.04206			 0.05236
	32.00			  9.54540			  0.06789			 0.22197
	32.25			  9.51726			  -0.07494			 0.42541
	32.50			  9.59929			  -0.12509			 0.32132
	32.75			  9.62392			  -0.04843			 0.26055
	33.00			  9.44762			  -0.03076			 0.12421
	33.25			  9.55628			  -0.03240			 -0.27358
	33.50			  9.60217			  0.17105			 0.03060
	33.75			  9.52126			  0.36690			 0.01126
	34.00			  9.94328			  0.60694			 0.10539
	34.25			  10.09395			  0.55577			 0.07752
	34.50			  10.14159			  0.64907			 0.05497
	34.75			  10.10908			  0.86177			 0.05628
	35.00			  9.93090			  0.79149			 0.02012
	35.25			  9.90776			  0.85869			 0.11522
	35.50			  10.33753			  0.61721			 0.05152
	35.75			  10.29989			  0.46719			 0.37565
	36.00			  10.36529			  0.30813			 0.44862
	36.25			  10.29239			  0.23229			 0.29443
	36.50			  10.37416			  0.19633			 0.16666
	36.75			  10.41193			  -0.05254			 0.13763
	37.00			  10.44769			  0.04302			 0.15236
	37.25			  10.43718			  0.11680			 0.16736
	37.50			  10.34240			  0.01651			 0.10571
	37.75			  10.16135			  -0.07042			 -0.07042
	38.00			  10.36916			  -0.15283			 -0.23141
	38.25			  10.43618			  -0.04638			 -0.20382
	38.50			  10.12833			  -0.19866			 -0.29921
	38.75			  10.05919			  -0.34478			 -0.44189
	39.00			  9.79223			  -0.17955			 -0.29404
	39.25			  10.03868			  -0.01802			 -0.14227
	39.50			  10.31702			  0.01034			 0.24872
	39.75			  10.15797			  0.07960			 0.15842
	40.00			  10.21911			  0.28018			 0.10818
	40.25			  10.10495			  0.23949			 0.38422
	40.50			  10.19486			  0.15153			 0.45374
	40.75			  10.36754			  0.30689			 0.36293
	41.00			  10.59348			  0.02555			 0.31959
	41.25			  10.71952			  -0.14523			 0.36605
	41.50			  10.87808			  -0.20565			 0.30473
	41.75			  10.70827			  -0.13927			 0.30491
	42.00			  10.86720			  -0.40787			 0.25953
	42.25			  10.54434			  -0.42369			 0.20273
	42.50			  10.51834			  -0.29299			 0.17850
	42.75			  10.46232			  -0.34909			 0.21671
	43.00			  10.68814			  -0.30594			 -0.00919
	43.25			  10.81030			  -0.56139			 0.09146
	43.50			  10.69889			  -0.45966			 -0.18248
	43.75			  10.58486			  -0.36677			 -0.10709
	44.00			  10.65625			  -0.28251			 -0.10471
	44.25			  10.63300			  -0.29751			 0.06024
	44.50			  10.48432			  -0.37376			 -0.03813
	44.75			  10.62587			  -0.40931			 0.10394
	45.00			  10.68664			  -0.55008			 0.13055
	45.25			  10.76304			  -0.67031			 0.07025
	45.50			  10.63775			  -0.79978			 -0.08468
	45.75			  10.80630			  -0.74902			 -0.33891
	46.00			  10.65275			  -0.75169			 -0.20313
	46.25			  10.88483			  -0.74367			 -0.23812
	46.50			  10.88258			  -0.74141			 -0.34976
	46.75			  10.60311			  -0.63229			 -0.18425
	47.00			  10.65388			  -0.37211			 -0.04829
	47.25			  10.71552			  -0.51802			 0.29066
	47.50			  10.59749			  -0.54042			 0.42108
	47.75			  10.45381			  -0.64154			 0.09956
	48.00			  10.53096			  -0.89904			 0.08339
	48.25			  10.29576			  -1.08544			 0.13693
	48.50			  10.26550			  -0.95514			 -0.01148
	48.75			  10.30089			  -0.72456			 0.16130
	49.00			  10.13296			  -0.81005			 0.23488
	49.25			  10.29151			  -1.11277			 0.03307
	49.50			  10.34228			  -1.25971			 0.00180
	49.75			  10.29564			  -1.11277			 0.20044
	50.00			  10.29439			  -0.99522			 0.31158
	50.25			  10.45394			  -1.07722			 0.15226
	50.50			  10.63487			  -1.13887			 -0.03403
	50.75			  10.39192			  -0.89534			 0.06732
	51.00			  10.25863			  -0.69394			 0.37481
	51.25			  10.29826			  -0.65983			 0.13307
	51.50			  10.23212			  -0.68038			 0.22081
	51.75			  10.14584			  -0.83924			 0.14695
	52.00			  10.42280			  -0.63270			 0.19523
	52.25			  10.47607			  -0.70052			 0.36390
	52.50			  10.45669			  -0.36985			 0.47196
	52.75			  10.22011			  -0.59324			 0.32765
	53.00			  10.00555			  -0.65736			 0.28283
	53.25			  10.02230			  -0.72148			 0.40612
	53.50			  9.99142			  -0.67627			 0.21531
	53.75			  9.96128			  -0.25826			 0.04295
	54.00			  9.95916			  -0.43993			 0.10725
	54.25			  9.75146			  -0.44815			 0.30878
	54.50			  9.70795			  -0.38547			 0.46222
	54.75			  9.88038			  -0.21757			 0.12803
	55.00			  9.83449			  -0.29607			 0.28301
	55.25			  9.83362			  -0.24552			 0.47625
	55.50			  9.82499			  -0.11235			 0.31941
	55.75			  9.66894			  -0.01946			 0.28739
	56.00			  9.69695			  -0.19784			 0.23143
	56.25			  9.73771			  -0.29155			 0.25296
	56.50			  9.79073			  -0.42698			 0.27337
	56.75			  9.76247			  -0.27614			 0.17589
	57.00			  9.87850			  -0.12427			 0.01033
	57.25			  9.79835			  -0.17133			 0.18115
	57.50			  9.83562			  -0.12180			 0.20114
	57.75			  9.82936			  0.03870			 0.34350
	58.00			  9.96841			  0.24935			 0.17244
	58.25			  10.23387			  0.01836			 0.01984
	58.50			  10.21961			  -0.03405			 0.16974
	58.75			  9.90689			  0.23702			 0.24699
	59.00			  10.11883			  0.21462			 0.30832
	59.25			  9.86225			  0.19325			 0.17384
	59.50			  9.76272			  -0.03364			 0.19877
	59.75			  9.62655			  -0.24942			 0.15888
	60.00			  9.67056			  -0.20935			 0.05227
	60.25			  9.61567			  -0.32094			 0.36651
	60.50			  9.76459			  -0.29422			 0.50840
	60.75			  9.78272			  -0.56324			 0.77218
	61.00			  9.69682			  -0.56899			 0.58999
	61.25			  9.48725			  -0.96357			 0.43012
	61.50			  9.48625			  -1.07968			 0.45491
	61.75			  9.81711			  -1.08585			 0.23255
	62.00			  9.77147			  -0.63948			 0.53939
	62.25			  9.82399			  -0.49665			 0.58370
	62.50			  9.72158			  -0.38896			 0.28912
	62.75			  9.84162			  -0.54823			 0.24891
	63.00			  10.08907			  -0.34807			 0.42341
	63.25			  10.08982			  -0.23586			 0.21694
	63.50			  10.19361			  -0.39348			 0.14607
	63.75			  10.17748			  -0.45021			 0.09397
	64.00			  10.05944			  -0.47589			 -0.20522
	64.25			  10.06044			  -0.52481			 -0.08915
	64.50			  9.94065			  -0.06261			 -0.06427
	64.75			  10.16347			  -0.23606			 0.20674
	65.00			  10.02468			  -0.63969			 0.18036
	65.25			  10.12183			  -0.50014			 0.16815
	65.50			  10.01530			  -0.51227			 0.19634
	65.75			  10.15334			  -0.54885			 -0.05360
	66.00			  10.29514			  -0.56467			 -0.02387
	66.25			  10.25850			  -0.68695			 0.13815
	66.50			  10.26550			  -0.56262			 -0.01837
	66.75			  10.18698			  -0.43007			 0.21270
	67.00			  10.18623			  -0.06385			 0.06364
	67.25			  10.30377			  -0.08501			 0.17468
	67.50			  10.17210			  -0.24881			 0.02953
	67.75			  10.33103			  0.08618			 -0.19912
	68.00			  10.18735			  0.29292			 -0.30960
	68.25			  10.22262			  -0.10536			 -0.12251
	68.50			  10.26963			  -0.23113			 0.25762
	68.75			  10.36641			  -0.43027			 0.13092
	69.00			  9.99154			  -0.59365			 0.16252
	69.25			  9.92852			  -0.34519			 0.31125
	69.50			  9.84587			  -0.43685			 0.27327
	69.75			  9.77547			  -0.50487			 0.42746
	70.00			  9.84562			  -0.64297			 0.37332
	70.25			  9.93227			  -0.77450			 0.29559
	70.50			  10.17422			  -0.79587			 0.22645
	70.75			  10.15359			  -0.70319			 0.08386
	71.00			  10.06531			  -0.69147			 0.24536
	71.25			  9.91689			  -0.74265			 0.05101
	71.50			  9.69069			  -0.93562			 -0.24935
	71.75			  9.59841			  -0.84931			 -0.08277
	72.00			  9.57328			  -0.95658			 0.12948
	72.25			  9.41536			  -0.84848			 0.29709
	72.50			  9.52264			  -0.83698			 0.40309
	72.75			  9.58203			  -1.11318			 0.50509
	73.00			  9.56365			  -0.99912			 0.54899
	73.25			  9.66994			  -0.74984			 0.57387
	73.50			  9.89601			  -0.66928			 0.42821
	73.75			  9.82624			  -0.68654			 0.54162
	74.00			  9.76272			  -0.95412			 0.39885
	74.25			  9.69420			  -0.92678			 0.52583
	74.50			  9.47700			  -0.82752			 0.25715
	74.75			  9.17840			  -1.04557			 0.14705
	75.00			  9.22517			  -1.20730			 0.27588
	75.25			  9.17028			  -0.75148			 -0.09656
	75.50			  9.14965			  -0.55152			 -0.11147
	75.75			  9.28056			  -0.38218			 -0.12480
	76.00			  9.19716			  -0.39348			 -0.18141
	76.25			  9.44987			  -0.61194			 -0.00691
	76.50			  9.33596			  -0.49377			 0.18320
	76.75			  9.12851			  -0.11461			 0.36572
	77.00			  9.31157			  -0.10125			 0.64069
	77.25			  9.41611			  -0.20462			 0.25193
	77.50			  9.68282			  -0.24901			 0.31302
	77.75			  9.31970			  -0.32382			 0.21475
	78.00			  9.37472			  -0.31786			 0.10050
	78.25			  9.44874			  -0.44527			 0.13577
	78.50			  9.44261			  -0.32649			 0.23344
	78.75			  9.45662			  -0.62140			 -0.08542
	79.00			  9.21792			  -0.44486			 -0.07489
	79.25			  9.35059			  -0.37334			 -0.06902
	79.50			  9.28882			  -0.49049			 -0.07391
	79.75			  9.53114			  -0.52686			 0.01988
	80.00			  9.81036			  -0.36862			 0.00180
	80.25			  9.84850			  -0.36204			 0.18838
	80.50			  9.52114			  -0.36882			 0.19895
	80.75			  9.39685			  -0.06857			 0.04649
	81.00			  9.49876			  0.34779			 0.50984
	81.25			  9.37097			  0.56193			 0.55439
	81.50			  9.13026			  0.16427			 0.40309
	81.75			  9.19016			  -0.01925			 0.32537
	82.00			  9.28494			  -0.03507			 0.15758
	82.25			  9.23142			  0.18934			 0.19667
	82.50			  9.00510			  0.11166			 0.19392
	82.75			  9.14539			  0.04035			 0.03997
	83.00			  9.18541			  0.19284			 0.09444
	83.25			  9.30344			  -0.09611			 0.26601
	83.50			  9.57216			  -0.04268			 0.48701
	83.75			  10.03831			  -0.01946			 0.09905
	84.00			  9.97078			  -0.07392			 0.23740
	84.25			  9.85762			  -0.14687			 0.36675
	84.50			  9.70245			  -0.19167			 0.21960
	84.75			  9.68607			  -0.04699			 0.30338
	85.00			  9.76034			  0.10221			 0.35109
	85.25			  9.71045			  0.04035			 0.17114
	85.50			  9.56991			  -0.13372			 0.03694
	85.75			  9.88176			  -0.17441			 0.05348
	86.00			  9.94290			  -0.10536			 -0.01865
	86.25			  9.78310			  0.03973			 -0.41178
	86.50			  9.60704			  0.09419			 -0.38779
	86.75			  9.67281			  0.08371			 -0.21971
	87.00			  9.56891			  0.05617			 -0.37889
	87.25			  9.57691			  0.10837			 -0.20737
	87.50			  9.71595			  0.04137			 -0.11683
	87.75			  9.50914			  0.22983			 -0.06287
	88.00			  9.24092			  0.40924			 0.15627
	88.25			  9.42211			  0.32991			 0.14802
	88.50			  9.47675			  0.19099			 0.25282
	88.75			  9.55865			  0.11639			 0.17547
	89.00			  9.64118			  0.24421			 0.19248
	89.25			  9.55578			  0.41335			 0.39345
	89.50			  9.58904			  0.50316			 -0.01078
	89.75			  9.69094			  0.40225			 0.11988
	90.00			  9.87100			  0.43390			 -0.12037
	90.25			  9.98992			  0.54816			 -0.04507
	90.50			  9.89388			  0.45486			 -0.08212
	90.75			  10.24762			  0.55967			 0.16797
	91.00			  10.46644			  0.67250			 0.34704
	91.25			  10.42193			  0.52453			 0.21452
	91.50			  10.50458			  0.39054			 0.04780
	91.75			  10.64788			  0.39341			 0.18348
	92.00			  10.74116			  0.29929			 0.11475
	92.25			  10.69789			  0.20784			 0.06350
	92.50			  10.64463			  0.44685			 -0.05933
	92.75			  10.59986			  0.31306			 0.06508
	93.00			  10.51671			  0.40205			 -0.04116
	93.25			  10.55385			  0.21380			 -0.16352
	93.50			  10.54247			  0.17660			 -0.07168
	93.75			  10.42330			  0.11330			 0.04686
	94.00			  10.35153			  0.11207			 0.03661
	94.25			  10.28301			  0.02308			 0.03242
	94.50			  10.16172			  0.10364			 0.09476
	94.75			  10.02605			  0.09686			 0.04095
	95.00			  10.12008			  0.05494			 -0.06688
	95.25			  10.09707			  -0.04145			 0.13754
	95.50			  10.08857			  -0.28580			 0.27332
	95.75			  10.05956			  -0.33923			 0.28213
	96.00			  9.76884			  -0.11379			 0.32747
	96.25			  9.75722			  0.13262			 0.13377
	96.50			  9.95715			  -0.07309			 0.27127
	96.75			  9.75909			  -0.21633			 0.52983
	97.00			  9.62217			  -0.10556			 0.51623
	97.25			  9.69582			  -0.26895			 0.53682
	97.50			  9.90951			  -0.55604			 0.21773
	97.75			  9.82836			  -0.63455			 0.23535
	98.00			  9.87600			  -1.00097			 0.00889
	98.25			  9.95153			  -1.16928			 -0.03361
	98.50			  10.05881			  -0.99933			 0.18008
	98.75			  10.12196			  -0.78889			 0.10613
	99.00			  10.18698			  -0.56693			 0.03773
	99.25			  10.03668			  -0.31601			 0.08018
	99.50			  9.88226			  -0.07864			 0.00926
	99.75			  10.11183			  -0.30018			 0.29643
	100.00			  10.32165			  -0.32731			 0.18269
	100.25			  10.18235			  -0.26011			 -0.10294
	100.50			  10.23662			  -0.24819			 0.03904
	100.75			  10.39405			  -0.40684			 0.34275
	101.00			  10.53084			  -0.53837			 0.45127
	101.25			  10.33953			  -0.51658			 0.33693
	101.50			  10.51984			  -0.58029			 0.09933
	101.75			  10.51296			  -0.70935			 0.28273
	102.00			  10.63675			  -0.85917			 0.18451
	102.25			  10.56623			  -0.82608			 -0.04936
	102.50			  10.35653			  -0.68408			 -0.08421
	102.75			  10.28476			  -0.99460			 0.01597
	103.00			  10.28701			  -1.15593			 0.11513
	103.25			  10.36178			  -1.33369			 0.11294
	103.50			  10.47745			  -1.12284			 -0.10224
	103.75			  10.49583			  -0.71018			 -0.10448
	104.00			  10.44744			  -0.61770			 -0.02350
	104.25			  10.11108			  -0.72764			 -0.13743
	104.50			  10.02930			  -0.52152			 -0.23975
	104.75			  9.92602			  -0.21469			 -0.13892
	105.00			  9.54740			  -0.50713			 -0.05304
	105.25			  9.61742			  -0.49686			 0.13493
	105.50			  9.88926			  -0.73504			 0.06895
	105.75			  9.74809			  -0.59427			 0.13679
	106.00			  9.74309			  -0.47261			 -0.03417
	106.25			  9.90651			  -0.41794			 0.05334
	106.50			  10.21174			  -0.26771			 0.14322
	106.75			  10.23912			  -0.28086			 0.13195
	107.00			  10.32252			  -0.19743			 -0.00877
	107.25			  10.41543			  -0.28847			 -0.03892
	107.50			  10.46119			  -0.28909			 -0.15192
	107.75			  10.62649			  -0.28518			 0.06154
	108.00			  10.91046			  -0.28847			 0.24350
	108.25			  10.81080			  -0.52172			 -0.00216
	108.50			  10.70740			  -0.62674			 -0.04116
	108.75			  10.65988			  -0.35341			 -0.09046
	109.00			  10.68051			  -0.32135			 0.18754
	109.25			  10.65838			  -0.59077			 0.06760
	109.50			  10.62424			  -0.42020			 -0.03547
	109.75			  10.70214			  -0.38177			 0.00153
	110.00			  10.52521			  -0.45000			 0.12016
	110.25			  10.57573			  -0.54186			 -0.21231
	110.50			  10.69002			  -0.42760			 -0.08673
	110.75			  10.63637			  -0.30655			 -0.03338
	111.00			  10.52371			  -0.31005			 -0.28705
	111.25			  10.53897			  -0.19887			 -0.15998
	111.50			  10.38379			  -0.09549			 0.04369
	111.75			  10.54897			  -0.15879			 0.05008
	112.00			  10.39967			  -0.17667			 -0.09665
	112.25			  10.45244			  0.09851			 -0.01171
	112.50			  10.57810			  0.13591			 -0.07913
	112.75			  10.65075			  0.24565			 0.11625
	113.00			  10.75354			  0.04076			 0.11415
	113.25			  10.67589			  0.23640			 0.06187
	113.50			  10.87357			  0.40410			 0.02193
	113.75			  10.93872			  0.10406			 0.34466
	114.00			  10.89496			  -0.02377			 0.14145
	114.25			  10.59574			  -0.29114			 0.06886
	114.50			  10.38342			  -0.07186			 0.02580
	114.75			  10.51708			  -0.18736			 -0.13645
	115.00			  10.32277			  -0.01658			 0.13554
	115.25			  10.31402			  0.03685			 -0.21915
	115.50			  10.42055			  0.31943			 -0.26244
	115.75			  10.44756			  0.39013			 -0.28383
	116.00			  10.47120			  0.30874			 -0.12508
	116.25			  10.30752			  -0.00158			 -0.04251
	116.50			  10.62912			  -0.01637			 0.35570
	116.75			  10.66576			  -0.12098			 0.55495
	117.00			  10.78555			  -0.25518			 0.19961
	117.25			  10.60474			  -0.24963			 0.35715
	117.50			  10.56410			  -0.08953			 0.37439
	117.75			  10.35753			  -0.25518			 0.40738
	118.00			  10.42180			  -0.00096			 0.40673
	118.25			  10.33978			  -0.28107			 0.27980
	118.50			  10.12821			  -0.20318			 0.10776
	118.75			  9.98929			  -0.68408			 -0.03454
	119.00			  9.94940			  -0.37334			 -0.02368
	119.25			  10.10483			  -0.33348			 -0.05323
	119.50			  10.12446			  -0.37560			 0.01350
	119.75			  10.01480			  -0.31375			 -0.24502
	120.00			  9.94052			  -0.25620			 -0.04204
	120.25			  9.63868			  -0.31436			 -0.04097
	120.50			  9.52814			  -0.55111			 -0.31375
	120.75			  9.49688			  -0.32443			 -0.07801
	121.00			  9.49513			  -0.25189			 0.10595
	121.25			  9.63080			  -0.03220			 -0.01525
	121.50			  9.57428			  -0.05213			 -0.13901
	121.75			  9.56003			  -0.17605			 0.10590
	122.00			  9.59854			  -0.31375			 0.02212
	122.25			  9.86475			  -0.05912			 -0.10812
	122.50			  9.72308			  -0.05254			 -0.22409
	122.75			  9.63530			  -0.03672			 -0.19903
	123.00			  9.36659			  -0.06981			 -0.31486
	123.25			  9.49713			  -0.04617			 -0.10821
	123.50			  9.69907			  -0.22887			 0.03927
	123.75			  9.56816			  -0.10351			 -0.09470
	124.00			  9.43436			  0.10241			 -0.26501
	124.25			  9.32070			  0.06953			 -0.29026
	124.50			  9.34883			  0.00767			 -0.80501
	124.75			  9.31457			  -0.07926			 -0.28816
	125.00			  9.49138			  -0.03692			 -0.24744
	125.25			  9.53002			  0.06912			 -0.32516
	125.50			  9.67944			  0.32025			 -0.34818
	125.75			  9.62067			  0.17496			 -0.68815
	126.00			  9.32933			  0.16694			 -0.51313
	126.25			  9.15652			  0.04446			 -0.38317
	126.50			  9.09725			  -0.06857			 -0.22647
	126.75			  8.99947			  0.03521			 -0.41817
	127.00			  8.91957			  0.03007			 -0.16389
	127.25			  8.97784			  -0.01000			 -0.29422
	127.50			  9.19966			  0.11556			 -0.11473
	127.75			  9.08237			  -0.39616			 -0.32325
	128.00			  8.95921			  -0.47178			 -0.33798
	128.25			  9.23830			  -0.20811			 -0.33229
	128.50			  9.06549			  -0.38321			 -0.03254
	128.75			  9.15540			  -0.27491			 -0.00258
	129.00			  9.41261			  -0.32114			 -0.24744
	129.25			  9.41561			  -0.37437			 -0.39082
	129.50			  9.57128			  -0.39307			 -0.09586
	129.75			  9.43336			  -0.22024			 -0.14637
	130.00			  9.71070			  -0.08974			 -0.26487
	130.25			  9.55278			  0.07220			 -0.21389
	130.50			  9.61930			  0.27401			 -0.10015
	130.75			  9.77410			  0.25757			 -0.22232
	131.00			  9.81874			  0.21811			 -0.28844
	131.25			  9.90139			  0.30422			 -0.23812
	131.50			  9.91777			  0.58536			 -0.40848
	131.75			  9.66018			  0.15502			 -0.46681
	132.00			  9.38985			  0.28203			 -0.48578
	132.25			  9.49588			  0.09481			 -0.60479
	132.50			  9.71445			  0.20496			 -0.46635
	132.75			  9.40523			  -0.19044			 -0.31524
	133.00			  9.30007			  -0.13845			 -0.48559
	133.25			  9.39810			  -0.03220			 -0.18589
	133.50			  9.74484			  0.00068			 -0.44813
	133.75			  9.72571			  -0.09221			 -0.35377
	134.00			  9.63043			  0.00171			 -0.44519
	134.25			  9.74259			  0.18544			 -0.61387
	134.50			  9.72033			  0.10097			 -0.58964
	134.75			  9.97504			  0.14988			 -0.44519
	135.00			  9.64455			  -0.11851			 -0.35848
	135.25			  9.48013			  -0.10926			 -0.43168
	135.50			  9.21192			  -0.08563			 -0.25275
	135.75			  9.27944			  0.00007			 -0.30778
	136.00			  9.17978			  0.11474			 -0.37395
	136.25			  9.27181			  0.17228			 -0.46793
	136.50			  9.34283			  -0.12653			 -0.45214
	136.75			  9.55765			  -0.17359			 -0.45880
	137.00			  9.55065			  -0.32690			 -0.56583
	137.25			  9.51776			  -0.15242			 -0.18146
	137.50			  9.36246			  -0.14071			 -0.26906
	137.75			  9.26856			  -0.11276			 -0.32125
	138.00			  9.44549			  -0.00219			 -0.46928
	138.25			  9.64631			  -0.02665			 -0.41248
	138.50			  9.83061			  -0.15222			 -0.25522
	138.75			  9.81924			  -0.28230			 -0.33066
	139.00			  9.64668			  -0.04946			 -0.23253
	139.25			  9.86012			  0.08946			 -0.36719
	139.50			  9.77935			  -0.06344			 -0.27419
	139.75			  9.64405			  -0.21839			 -0.00821
	140.00			  9.74321			  -0.28045			 0.09784
	140.25			  9.70220			  -0.34992			 0.14891
	140.50			  9.69607			  -0.09406			 0.12370
	140.75			  9.64130			  0.00274			 0.07603
	141.00			  9.53452			  -0.22497			 -0.05761
	141.25			  9.77472			  -0.01000			 -0.05253
	141.50			  9.81623			  0.15214			 0.07846
	141.75			  9.68719			  -0.06960			 -0.03007
	142.00			  9.62917			  -0.03549			 0.21880
	142.25			  9.56315			  0.03480			 0.16648
	142.50			  9.62730			  -0.19332			 0.11620
	142.75			  9.86375			  -0.26956			 -0.01819
	143.00			  9.84599			  -0.41445			 -0.10448
	143.25			  9.60829			  -0.17523			 -0.04689
	143.50			  9.31770			  0.09851			 0.03475
	143.75			  9.30632			  0.22058			 0.29979
	144.00			  9.27881			  0.09419			 0.50197
	144.25			  9.41911			  -0.07412			 0.23334
	144.50			  9.29907			  -0.11152			 0.35813
	144.75			  9.37672			  0.09460			 0.64008
	145.00			  9.25405			  0.16016			 0.43590
	145.25			  9.18691			  -0.02131			 0.51902
	145.50			  9.33183			  -0.11070			 0.47173
	145.75			  9.30144			  0.00952			 0.44009
	146.00			  9.19278			  0.04240			 0.35519
	146.25			  9.16353			  -0.02911			 0.35058
	146.50			  8.98947			  0.18523			 0.38222
	146.75			  9.14965			  0.42280			 0.43366
	147.00			  9.25218			  0.18605			 0.52555
	147.25			  9.19116			  0.28819			 0.60779
	147.50			  9.17015			  0.45609			 0.39368
	147.75			  9.21229			  0.32971			 0.47914
	148.00			  9.38472			  -0.32402			 0.19504
	148.25			  9.40648			  -0.21490			 0.06816
	148.50			  9.42698			  -0.07371			 0.11732
	148.75			  9.47588			  0.03357			 0.11354
	149.00			  9.43774			  -0.13804			 0.12808
	149.25			  9.36371			  0.04322			 0.25119
	149.50			  9.61980			  -0.04884			 0.13675
	149.75			  9.53840			  -0.32156			 -0.07177
	150.00			  9.56553			  -0.39616			 0.14127
	150.25			  9.55127			  -0.47528			 0.02445
	150.50			  9.38997			  -0.32710			 -0.17372
	150.75			  9.56690			  -0.65387			 -0.25592
	151.00			  9.70620			  -0.46007			 -0.04479
	151.25			  9.61079			  -0.36985			 -0.05998
	151.50			  9.53664			  -0.44137			 -0.30354
	151.75			  9.67106			  -0.04782			 -0.08114
	152.00			  9.52039			  0.28901			 0.32868
	152.25			  9.60854			  0.20928			 0.24630
	152.50			  9.60367			  0.35827			 0.19243
	152.75			  9.51489			  0.11433			 0.05968
	153.00			  9.55853			  0.29271			 0.04095
	153.25			  9.64668			  0.21318			 -0.09619
	153.50			  9.58353			  -0.14379			 -0.13062
	153.75			  9.56090			  -0.24922			 -0.00793
	154.00			  9.76222			  0.06563			 -0.09772
	154.25			  9.62317			  0.16263			 0.18912
	154.50			  9.68069			  0.20537			 0.07860
	154.75			  9.66031			  0.23188			 -0.01250
	155.00			  9.63805			  0.57467			 0.10823
	155.25			  9.53602			  0.61783			 -0.04731
	155.50			  9.71583			  0.61434			 0.14807
	155.75			  9.76684			  0.38725			 0.27556
	156.00			  9.54202			  0.44931			 0.13050
	156.25			  9.71858			  0.25100			 -0.09563
	156.50			  9.89076			  0.28162			 0.05772
	156.75			  9.86575			  0.19880			 -0.05388
	157.00			  9.61129			  0.30813			 -0.11124
	157.25			  9.55803			  0.72840			 -0.12084
	157.50			  9.50701			  0.65421			 -0.24753
	157.75			  9.44537			  0.52679			 -0.52786
	158.00			  9.37809			  0.62400			 -0.70292
	158.25			  9.35834			  0.39691			 -0.64677
	158.50			  9.58779			  0.38971			 -0.59840
	158.75			  9.60854			  -0.01905			 -0.49757
	159.00			  9.60917			  0.05576			 -0.28360
	159.25			  9.48575			  0.30566			 -0.18323
	159.50			  9.39285			  0.13509			 -0.27679
	159.75			  9.49576			  0.06193			 -0.23672
	160.00			  9.39685			  -0.01206			 -0.39822
	160.25			  9.28781			  -0.03281			 -0.67310
	160.50			  9.48863			  0.03665			 -0.42138
	160.75			  9.84062			  0.03850			 -0.59290
	161.00			  9.78460			  -0.03055			 -0.59398
	161.25			  9.94328			  -0.22558			 -0.54659
	161.50			  9.88613			  -0.42822			 -0.66210
	161.75			  10.14634			  -0.31313			 -0.70949
	162.00			  10.25875			  -0.06385			 -0.93208
	162.25			  10.33077			  -0.03487			 -0.57375
	162.50			  10.41930			  -0.02316			 -0.35158
	162.75			  10.31402			  0.13283			 -0.32884
	163.00			  10.00455			  0.47644			 -0.56224
	163.25			  9.90526			  0.62297			 -0.55232
	163.50			  9.90376			  0.30731			 -0.73362
	163.75			  10.05081			  0.37574			 -0.57464
	164.00			  10.07182			  0.28675			 -0.58755
	164.25			  9.95916			  0.14372			 -0.75995
	164.50			  9.89026			  -0.11276			 -0.59151
	164.75			  9.86300			  -0.09159			 -1.05300
	165.00			  10.33265			  0.21585			 -0.74136
	165.25			  10.33403			  0.09214			 -0.64654
	165.50			  10.60186			  -0.01535			 -0.67519
	165.75			  10.68826			  -0.08358			 -0.60306
	166.00			  10.62087			  -0.18016			 -0.62221
	166.25			  10.59886			  -0.11481			 -0.72696