--------------TurbSim v2.00.* User Time Series Input File-----------------------
     Time series input from low-res turbsim run
--------------------------------------------------------------------------------
          3 nComp - Number of velocity components in the file
          1 nPoints - Number of time series points contained in this file (-)
          1 RefPtID - Index of the reference point (1-nPoints)
     Pointyi Pointzi ! nPoints listed in order of increasing height
       (m)     (m)
       1.40494   94.00000
--------Time Series-------------------------------------------------------------
Elapsed Time         Point01u             Point01v           Point01w
         (s)            (m/s)                (m/s)              (m/s)
	0.00			  9.21941			  -0.18662			 -0.01458
	0.25			  9.31913			  -0.19402			 0.08960
	0.50			  9.40227			  -0.17096			 0.06747
	0.75			  9.52838			  -0.11910			 0.04661
	1.00			  9.54659			  -0.12601			 0.09148
	1.25			  9.55783			  -0.23208			 0.11033
	1.50			  9.56423			  -0.14503			 0.18733
	1.75			  9.53400			  -0.14419			 0.24394
	2.00			  9.57212			  -0.05748			 0.06864
	2.25			  9.59637			  0.07553			 0.10064
	2.50			  9.48023			  -0.07802			 0.05019
	2.75			  9.40555			  -0.13223			 0.13633
	3.00			  9.42959			  -0.23460			 0.12091
	3.25			  9.35725			  -0.30245			 0.19003
	3.50			  9.37639			  -0.31289			 0.14020
	3.75			  9.41842			  -0.28999			 0.11539
	4.00			  9.57966			  -0.20497			 0.25839
	4.25			  9.65584			  -0.15783			 0.12399
	4.50			  9.70598			  -0.26844			 0.16497
	4.75			  9.75626			  -0.31609			 0.12564
	5.00			  9.74147			  -0.31491			 0.08679
	5.25			  9.69339			  -0.26053			 0.16647
	5.50			  9.71003			  -0.30144			 0.10024
	5.75			  9.68215			  -0.41037			 -0.00464
	6.00			  9.64467			  -0.39977			 -0.05774
	6.25			  9.63798			  -0.41273			 -0.07435
	6.50			  9.55583			  -0.29605			 -0.13917
	6.75			  9.65370			  -0.34673			 -0.16656
	7.00			  9.63421			  -0.33966			 -0.17166
	7.25			  9.72895			  -0.29302			 -0.09614
	7.50			  9.64581			  -0.26912			 -0.00839
	7.75			  9.67511			  -0.16153			 0.06922
	8.00			  9.72852			  -0.05125			 0.03096
	8.25			  9.64261			  -0.04906			 -0.04667
	8.50			  9.70783			  -0.11254			 -0.00901
	8.75			  9.82006			  -0.12971			 0.03023
	9.00			  9.95534			  -0.12971			 0.04927
	9.25			  9.96345			  -0.07331			 0.06096
	9.50			  9.98898			  -0.11961			 0.04619
	9.75			  9.98144			  -0.18207			 -0.10060
	10.00			  10.06352			  -0.21473			 -0.15624
	10.25			  10.08500			  -0.13914			 -0.08029
	10.50			  10.04197			  -0.15917			 0.03632
	10.75			  10.07369			  -0.06674			 0.06564
	11.00			  10.05563			  -0.15311			 0.00669
	11.25			  9.97647			  -0.14469			 -0.06464
	11.50			  10.01388			  -0.20632			 -0.04788
	11.75			  10.07796			  -0.11725			 0.02272
	12.00			  10.08671			  -0.10378			 0.03498
	12.25			  10.07419			  -0.01573			 -0.01042
	12.50			  10.00591			  0.05953			 -0.02366
	12.75			  10.03394			  0.08832			 -0.02278
	13.00			  10.02263			  0.08142			 -0.13813
	13.25			  10.08052			  0.06357			 -0.12026
	13.50			  10.05712			  0.02451			 -0.07585
	13.75			  10.07156			  0.00869			 -0.09234
	14.00			  10.06530			  -0.05580			 0.00958
	14.25			  9.87398			  -0.08930			 0.08054
	14.50			  9.96502			  -0.08627			 0.01845
	14.75			  10.02512			  -0.00950			 0.03040
	15.00			  10.06388			  -0.04098			 -0.02083
	15.25			  10.06850			  0.07048			 -0.09528
	15.50			  10.02554			  0.13496			 -0.10917
	15.75			  10.04475			  0.11072			 0.01602
	16.00			  10.04169			  0.13210			 0.02445
	16.25			  9.97426			  0.02148			 -0.03866
	16.50			  9.94624			  0.02249			 0.04121
	16.75			  9.95392			  -0.03694			 0.04435
	17.00			  9.92006			  -0.01926			 0.10068
	17.25			  9.96466			  -0.04637			 0.15631
	17.50			  9.87767			  -0.11169			 0.12742
	17.75			  9.94901			  -0.02919			 0.07794
	18.00			  9.83173			  -0.05310			 0.12323
	18.25			  9.74623			  -0.04671			 0.02475
	18.50			  9.72141			  -0.03122			 -0.03418
	18.75			  9.76572			  0.05532			 -0.09211
	19.00			  9.82220			  0.08513			 -0.14189
	19.25			  9.78109			  0.10045			 -0.17026
	19.50			  9.76288			  0.03226			 -0.15810
	19.75			  9.75562			  0.23581			 -0.11512
	20.00			  9.80555			  0.15685			 -0.11231
	20.25			  9.68976			  0.00987			 -0.12650
	20.50			  9.71480			  0.00347			 -0.10888
	20.75			  9.74211			  -0.05883			 -0.11853
	21.00			  9.78934			  -0.13089			 -0.05767
	21.25			  9.84780			  -0.12163			 -0.04761
	21.50			  9.77604			  -0.05647			 -0.03709
	21.75			  9.83286			  0.04758			 -0.05263
	22.00			  9.95833			  0.11021			 -0.10482
	22.25			  9.94567			  0.01778			 -0.05418
	22.50			  9.80996			  -0.03071			 -0.09480
	22.75			  9.91580			  0.02266			 -0.11744
	23.00			  9.82305			  -0.13863			 -0.04062
	23.25			  9.78919			  -0.16507			 -0.04282
	23.50			  9.78286			  -0.17736			 -0.01711
	23.75			  9.70086			  -0.18712			 -0.02000
	24.00			  9.78557			  -0.07449			 -0.03619
	24.25			  9.72518			  0.00330			 -0.14062
	24.50			  9.64510			  -0.02095			 -0.12432
	24.75			  9.62134			  -0.08240			 -0.11221
	25.00			  9.59296			  -0.06371			 -0.12733
	25.25			  9.61871			  -0.03997			 -0.06832
	25.50			  9.64801			  0.02451			 -0.16530
	25.75			  9.55918			  -0.06304			 -0.11273
	26.00			  9.41778			  -0.13594			 -0.07154
	26.25			  9.45747			  -0.10917			 -0.14440
	26.50			  9.41088			  -0.07550			 -0.04462
	26.75			  9.51060			  -0.04300			 0.04073
	27.00			  9.56593			  0.05263			 0.08738
	27.25			  9.46209			  0.05044			 0.10441
	27.50			  9.41195			  -0.12045			 0.06046
	27.75			  9.45548			  -0.07145			 0.16147
	28.00			  9.41309			  -0.02229			 0.06956
	28.25			  9.47930			  0.01003			 0.13869
	28.50			  9.42518			  0.07738			 0.19835
	28.75			  9.44324			  0.13698			 0.17750
	29.00			  9.47852			  0.18513			 0.07753
	29.25			  9.44431			  0.20349			 -0.01470
	29.50			  9.43485			  0.32841			 0.06740
	29.75			  9.34409			  0.26410			 0.12388
	30.00			  9.37724			  0.37185			 0.12240
	30.25			  9.37240			  0.35687			 0.17777
	30.50			  9.55626			  0.27605			 0.10292
	30.75			  9.54659			  0.29036			 0.09250
	31.00			  9.54950			  0.33700			 0.07454
	31.25			  9.60498			  0.36478			 0.00458
	31.50			  9.55313			  0.32976			 0.05791
	31.75			  9.55085			  0.41310			 -0.03611
	32.00			  9.48805			  0.54678			 -0.01033
	32.25			  9.56963			  0.49004			 -0.01719
	32.50			  9.60007			  0.35670			 0.03385
	32.75			  9.64844			  0.37269			 -0.00732
	33.00			  9.73870			  0.35922			 0.10389
	33.25			  9.69012			  0.39020			 0.18608
	33.50			  9.67433			  0.44374			 0.13614
	33.75			  9.63144			  0.52860			 0.16731
	34.00			  9.56814			  0.50856			 0.19963
	34.25			  9.50889			  0.41327			 0.24513
	34.50			  9.64389			  0.42741			 0.13144
	34.75			  9.56629			  0.38364			 0.11704
	35.00			  9.61216			  0.39694			 0.05391
	35.25			  9.65690			  0.36512			 -0.03426
	35.50			  9.74673			  0.22874			 0.07543
	35.75			  9.75015			  0.19759			 0.08688
	36.00			  9.79247			  0.22335			 0.11619
	36.25			  9.77397			  0.18564			 0.14639
	36.50			  9.75292			  0.14826			 0.04493
	36.75			  9.77525			  0.26443			 0.05485
	37.00			  9.76587			  0.24305			 0.22944
	37.25			  9.82412			  0.13496			 0.27287
	37.50			  9.80612			  0.07772			 0.27799
	37.75			  9.72326			  0.12856			 0.19871
	38.00			  9.87590			  0.04808			 0.18087
	38.25			  9.75968			  -0.00226			 0.20262
	38.50			  9.71956			  -0.07078			 0.12255
	38.75			  9.73514			  -0.06169			 0.12380
	39.00			  9.67056			  -0.12398			 0.16300
	39.25			  9.61209			  -0.13644			 0.21662
	39.50			  9.61088			  -0.23713			 0.16003
	39.75			  9.71416			  -0.14267			 0.03807
	40.00			  9.76323			  -0.21844			 0.03010
	40.25			  9.70697			  -0.29942			 -0.05592
	40.50			  9.67447			  -0.18897			 -0.09495
	40.75			  9.71672			  -0.12483			 -0.08426
	41.00			  9.74702			  -0.10967			 -0.07474
	41.25			  9.89112			  -0.12264			 0.03082
	41.50			  9.77248			  -0.12887			 -0.06345
	41.75			  9.62980			  -0.12567			 0.00159
	42.00			  9.54388			  0.00178			 0.02044
	42.25			  9.57184			  0.01761			 0.08721
	42.50			  9.58030			  0.01475			 0.12005
	42.75			  9.58485			  0.05431			 0.21515
	43.00			  9.64936			  0.12890			 0.10619
	43.25			  9.74524			  0.05196			 0.10104
	43.50			  9.76565			  0.17015			 0.10824
	43.75			  9.78898			  0.00515			 0.11859
	44.00			  9.67703			  -0.07499			 -0.05527
	44.25			  9.66117			  -0.01758			 -0.02588
	44.50			  9.64019			  -0.08071			 0.11654
	44.75			  9.59068			  -0.06910			 0.15777
	45.00			  9.58891			  -0.10058			 0.06175
	45.25			  9.60100			  -0.17651			 -0.00828
	45.50			  9.67333			  -0.20951			 0.09349
	45.75			  9.74054			  -0.20564			 0.11849
	46.00			  9.76857			  -0.22383			 0.06246
	46.25			  9.76629			  -0.16692			 0.03517
	46.50			  9.83699			  -0.18527			 -0.03717
	46.75			  9.74915			  -0.21288			 -0.01510
	47.00			  9.78158			  -0.13324			 0.01079
	47.25			  9.78486			  -0.04586			 -0.07493
	47.50			  9.73557			  -0.10967			 -0.03142
	47.75			  9.73066			  -0.02701			 -0.01069
	48.00			  9.65712			  -0.03391			 -0.08959
	48.25			  9.71729			  -0.03172			 -0.13666
	48.50			  9.62902			  0.03108			 -0.19130
	48.75			  9.57340			  0.05768			 -0.21542
	49.00			  9.58670			  0.09523			 -0.12066
	49.25			  9.68777			  0.06155			 -0.13198
	49.50			  9.74638			  0.07384			 -0.11805
	49.75			  9.76323			  0.13075			 -0.15507
	50.00			  9.78279			  0.03933			 -0.12118
	50.25			  9.78422			  0.00010			 -0.12756
	50.50			  9.76523			  -0.01825			 -0.12281
	50.75			  9.75185			  -0.05933			 -0.10637
	51.00			  9.65043			  -0.03391			 -0.09510
	51.25			  9.72902			  -0.03475			 -0.08890
	51.50			  9.79339			  -0.05698			 0.06347
	51.75			  9.81316			  -0.13122			 -0.00667
	52.00			  9.82867			  -0.09957			 -0.10453
	52.25			  9.84325			  -0.16389			 -0.13704
	52.50			  9.78109			  -0.22282			 -0.11045
	52.75			  9.84801			  -0.21153			 -0.18996
	53.00			  9.82042			  -0.11237			 -0.30845
	53.25			  9.87924			  -0.04300			 -0.25764
	53.50			  9.91957			  0.00987			 -0.20088
	53.75			  9.87376			  -0.00983			 -0.17766
	54.00			  9.78158			  -0.05479			 -0.13171
	54.25			  9.78116			  -0.03256			 -0.28521
	54.50			  9.82511			  -0.05630			 -0.31418
	54.75			  9.79588			  -0.07280			 -0.23540
	55.00			  9.90641			  -0.08240			 -0.26605
	55.25			  9.90655			  -0.08425			 -0.30627
	55.50			  9.92042			  0.02283			 -0.18821
	55.75			  9.80534			  0.01155			 -0.08018
	56.00			  9.89659			  0.11274			 -0.17677
	56.25			  9.94915			  0.07452			 -0.25979
	56.50			  10.03529			  -0.02078			 -0.19043
	56.75			  10.10819			  -0.16995			 -0.27213
	57.00			  10.16680			  -0.20531			 -0.23818
	57.25			  10.17967			  -0.17096			 -0.16174
	57.50			  10.05968			  -0.06253			 -0.02136
	57.75			  10.01053			  -0.20867			 -0.08483
	58.00			  10.04780			  -0.32215			 -0.08299
	58.25			  10.06089			  -0.35414			 -0.08353
	58.50			  9.97768			  -0.37232			 -0.19047
	58.75			  9.93884			  -0.33798			 -0.17764
	59.00			  9.93429			  -0.33343			 -0.16392
	59.25			  10.01295			  -0.31744			 -0.23149
	59.50			  10.02988			  -0.25430			 -0.08556
	59.75			  10.05556			  -0.25009			 -0.04433
	60.00			  10.00463			  -0.23999			 -0.11802
	60.25			  9.97156			  -0.11439			 -0.12373
	60.50			  9.94994			  -0.18241			 -0.16164
	60.75			  9.95257			  -0.23948			 -0.18756
	61.00			  10.07270			  -0.21760			 -0.26465
	61.25			  10.06879			  -0.19554			 -0.21883
	61.50			  10.02853			  -0.30363			 -0.18164
	61.75			  9.97277			  -0.33360			 -0.17745
	62.00			  9.90456			  -0.31255			 -0.06999
	62.25			  9.89802			  -0.31811			 -0.12943
	62.50			  9.92575			  -0.14890			 -0.15507
	62.75			  9.96381			  -0.11439			 -0.06751
	63.00			  9.97227			  -0.08947			 -0.10434
	63.25			  9.93948			  -0.01337			 -0.07269
	63.50			  9.92611			  -0.14772			 -0.01755
	63.75			  9.78820			  -0.18847			 -0.02642
	64.00			  9.84972			  -0.27720			 -0.01458
	64.25			  9.81174			  -0.31272			 -0.03406
	64.50			  9.97433			  -0.46913			 -0.02918
	64.75			  9.93955			  -0.51611			 -0.05610
	65.00			  9.85065			  -0.40886			 -0.11206
	65.25			  9.86885			  -0.35162			 -0.08656
	65.50			  9.83230			  -0.33040			 -0.16649
	65.75			  9.81409			  -0.41627			 -0.15670
	66.00			  9.85975			  -0.41223			 -0.05600
	66.25			  9.78016			  -0.31660			 -0.10939
	66.50			  9.82703			  -0.29605			 -0.13482
	66.75			  9.80164			  -0.29185			 -0.13524
	67.00			  9.80598			  -0.29201			 -0.15003
	67.25			  9.75278			  -0.28309			 -0.13673
	67.50			  9.70911			  -0.28696			 -0.03303
	67.75			  9.73770			  -0.36071			 -0.00174
	68.00			  9.76971			  -0.32703			 -0.00973
	68.25			  9.77874			  -0.32636			 -0.12794
	68.50			  9.76366			  -0.26390			 -0.02343
	68.75			  9.80207			  -0.34757			 0.01787
	69.00			  9.83144			  -0.26019			 -0.04884
	69.25			  9.89951			  -0.20581			 -0.15907
	69.50			  9.93023			  -0.23595			 -0.14493
	69.75			  9.83998			  -0.43479			 -0.16344
	70.00			  9.76558			  -0.44573			 -0.21547
	70.25			  9.83222			  -0.38259			 -0.14421
	70.50			  9.88372			  -0.33764			 -0.22454
	70.75			  9.89375			  -0.24083			 -0.15317
	71.00			  9.95605			  -0.23696			 -0.08727
	71.25			  9.91188			  -0.29976			 -0.00956
	71.50			  9.90342			  -0.25245			 -0.05968
	71.75			  9.90612			  -0.22635			 -0.02240
	72.00			  9.78151			  -0.22029			 -0.09121
	72.25			  9.83955			  -0.21440			 -0.08937
	72.50			  9.80442			  -0.09688			 -0.03491
	72.75			  9.89112			  -0.05630			 -0.06273
	73.00			  9.93436			  -0.03542			 -0.20821
	73.25			  9.91928			  -0.00630			 -0.15223
	73.50			  9.91992			  -0.03728			 -0.04272
	73.75			  9.77917			  -0.27535			 -0.07939
	74.00			  9.78941			  -0.28713			 -0.10187
	74.25			  9.70833			  -0.29420			 -0.08708
	74.50			  9.74104			  -0.17904			 -0.08150
	74.75			  9.77689			  -0.17887			 0.02042
	75.00			  9.89766			  -0.09587			 0.05677
	75.25			  9.74524			  -0.19638			 0.04127
	75.50			  9.73045			  -0.18695			 -0.05182
	75.75			  9.69126			  -0.20025			 -0.05169
	76.00			  9.73770			  -0.12432			 0.03730
	76.25			  9.68848			  -0.07028			 -0.01362
	76.50			  9.66828			  -0.15362			 0.05552
	76.75			  9.65712			  -0.24403			 -0.03357
	77.00			  9.74858			  -0.18796			 -0.09395
	77.25			  9.69837			  -0.14655			 0.01628
	77.50			  9.69851			  -0.04031			 0.04604
	77.75			  9.71971			  0.00835			 0.02192
	78.00			  9.75818			  0.04590			 -0.09022
	78.25			  9.86082			  -0.03475			 -0.12955
	78.50			  9.91238			  -0.03105			 -0.17930
	78.75			  9.93116			  0.15348			 -0.24364
	79.00			  9.87063			  0.10668			 -0.19312
	79.25			  9.84609			  0.09051			 -0.08631
	79.50			  9.82042			  0.11122			 -0.05696
	79.75			  9.84218			  -0.03004			 -0.02328
	80.00			  9.87120			  -0.08240			 -0.03723
	80.25			  9.84211			  -0.12180			 0.06219
	80.50			  9.86416			  0.06745			 -0.05535
	80.75			  9.75655			  0.11004			 -0.02774
	81.00			  9.69851			  0.30350			 -0.10807
	81.25			  9.79695			  0.27976			 -0.01870
	81.50			  9.79403			  0.15028			 -0.08098
	81.75			  9.80498			  0.13681			 -0.04050
	82.00			  9.81323			  -0.06758			 0.04416
	82.25			  9.73073			  0.04994			 0.20074
	82.50			  9.78237			  0.17907			 0.07874
	82.75			  9.73870			  0.07671			 0.02469
	83.00			  9.81565			  -0.09368			 -0.00592
	83.25			  9.83087			  -0.20379			 -0.02349
	83.50			  9.75776			  -0.00983			 0.01785
	83.75			  9.84261			  -0.02145			 0.07899
	84.00			  9.94894			  -0.08324			 0.02724
	84.25			  9.93400			  -0.06371			 -0.01107
	84.50			  9.77348			  -0.00849			 -0.02155
	84.75			  9.80811			  -0.02987			 0.06088
	85.00			  9.87149			  -0.01993			 0.03090
	85.25			  9.89688			  -0.11893			 0.07880
	85.50			  9.88514			  -0.13291			 0.13120
	85.75			  9.86907			  -0.10479			 0.05224
	86.00			  9.87227			  0.06458			 0.04263
	86.25			  9.80221			  0.05162			 0.12114
	86.50			  9.88927			  0.12587			 0.14267
	86.75			  9.82319			  0.04337			 0.10273
	87.00			  9.89638			  0.04455			 -0.01630
	87.25			  9.80093			  0.19978			 0.13658
	87.50			  9.81359			  0.08883			 0.06997
	87.75			  9.89090			  0.07149			 0.02720
	88.00			  9.85861			  0.08664			 0.01146
	88.25			  9.86907			  0.20416			 0.00829
	88.50			  9.90662			  0.12334			 0.10867
	88.75			  9.76985			  -0.00478			 0.10541
	89.00			  9.67390			  -0.11203			 0.11006
	89.25			  9.77931			  -0.11590			 0.00237
	89.50			  9.84673			  -0.17180			 0.01320
	89.75			  9.81067			  -0.03004			 0.00473
	90.00			  9.81231			  0.03563			 -0.04834
	90.25			  9.70463			  0.09792			 0.01789
	90.50			  9.62824			  0.04522			 -0.04309
	90.75			  9.65228			  -0.08762			 -0.01401
	91.00			  9.60669			  -0.06876			 -0.05740
	91.25			  9.52987			  -0.04957			 -0.14562
	91.50			  9.59339			  0.02384			 -0.06865
	91.75			  9.58535			  0.08243			 0.00933
	92.00			  9.56921			  0.06795			 0.06223
	92.25			  9.49957			  -0.04081			 0.02855
	92.50			  9.57361			  -0.02078			 0.05836
	92.75			  9.52745			  0.02889			 0.02136
	93.00			  9.59417			  -0.01118			 0.07018
	93.25			  9.54332			  0.01694			 0.04220
	93.50			  9.58371			  -0.03357			 0.04345
	93.75			  9.65591			  -0.15075			 0.17173
	94.00			  9.66416			  -0.14570			 0.11129
	94.25			  9.66970			  -0.24538			 0.12880
	94.50			  9.65171			  -0.05462			 -0.04705
	94.75			  9.62632			  -0.07651			 -0.02493
	95.00			  9.67191			  0.00414			 -0.00826
	95.25			  9.81259			  -0.01135			 0.03692
	95.50			  9.86324			  0.01593			 0.09414
	95.75			  9.83678			  -0.05866			 0.16114
	96.00			  9.64559			  -0.12752			 0.02529
	96.25			  9.62561			  -0.13459			 -0.02813
	96.50			  9.64965			  -0.07398			 0.05029
	96.75			  9.68976			  -0.00411			 -0.00063
	97.00			  9.76366			  -0.09368			 -0.01019
	97.25			  9.74360			  -0.02499			 -0.00998
	97.50			  9.70406			  0.02131			 -0.07081
	97.75			  9.75840			  -0.03458			 -0.06820
	98.00			  9.74303			  0.13816			 -0.00581
	98.25			  9.75143			  0.06273			 -0.04493
	98.50			  9.70071			  -0.15496			 -0.01600
	98.75			  9.72845			  -0.19739			 -0.04228
	99.00			  9.73742			  -0.18443			 -0.13679
	99.25			  9.75093			  -0.29875			 -0.19283
	99.50			  9.79424			  -0.29454			 -0.29328
	99.75			  9.76551			  -0.38243			 -0.18961
	100.00			  9.86864			  -0.45415			 -0.07414
	100.25			  9.87739			  -0.45819			 -0.11961
	100.50			  9.78123			  -0.41324			 0.01682
	100.75			  9.75740			  -0.45903			 -0.11085
	101.00			  9.77575			  -0.53412			 0.05527
	101.25			  9.72397			  -0.40095			 0.09045
	101.50			  9.71010			  -0.27063			 0.10177
	101.75			  9.75008			  -0.29218			 0.13422
	102.00			  9.70953			  -0.19015			 0.20927
	102.25			  9.81060			  -0.26625			 0.34186
	102.50			  9.88358			  -0.28797			 0.35161
	102.75			  9.84410			  -0.36020			 0.39456
	103.00			  9.81885			  -0.31306			 0.42288
	103.25			  9.85342			  -0.28090			 0.35485
	103.50			  9.85484			  -0.19605			 0.30299
	103.75			  9.89851			  -0.14840			 0.33835
	104.00			  9.96551			  -0.19032			 0.27117
	104.25			  9.95001			  -0.12634			 0.17173
	104.50			  9.94410			  -0.09082			 0.23674
	104.75			  10.00321			  -0.07213			 0.15748
	105.00			  9.95605			  -0.06388			 0.10435
	105.25			  9.90157			  -0.16271			 0.15206
	105.50			  9.84574			  -0.11254			 0.24274
	105.75			  9.87846			  -0.07768			 0.17859
	106.00			  9.79759			  -0.13122			 0.23273
	106.25			  9.81572			  -0.23982			 0.20942
	106.50			  9.71750			  -0.09351			 0.04742
	106.75			  9.68713			  -0.00024			 0.00795
	107.00			  9.80797			  -0.00663			 -0.08526
	107.25			  9.89602			  -0.03812			 -0.09627
	107.50			  9.92355			  -0.04048			 -0.12802
	107.75			  9.92028			  -0.01505			 -0.12313
	108.00			  9.91224			  -0.15581			 -0.10842
	108.25			  9.87554			  -0.07600			 -0.20099
	108.50			  9.92561			  -0.03324			 -0.29604
	108.75			  9.82063			  -0.09671			 -0.26703
	109.00			  9.79439			  -0.06910			 -0.22546
	109.25			  9.80811			  0.00364			 -0.14407
	109.50			  9.81935			  0.05280			 -0.14859
	109.75			  9.80548			  0.06947			 0.01044
	110.00			  9.77796			  0.04438			 -0.07778
	110.25			  9.93123			  -0.02061			 0.00601
	110.50			  9.89090			  -0.10126			 0.07631
	110.75			  9.82149			  -0.14587			 0.09368
	111.00			  9.75961			  -0.12163			 0.09782
	111.25			  9.81146			  -0.09536			 -0.04261
	111.50			  9.78272			  -0.08947			 -0.09144
	111.75			  9.84830			  -0.00764			 -0.07378
	112.00			  9.84026			  0.03377			 -0.04270
	112.25			  9.82838			  -0.02280			 0.16461
	112.50			  9.75498			  0.06458			 0.16346
	112.75			  9.67902			  0.12823			 0.08780
	113.00			  9.66394			  0.11223			 0.08947
	113.25			  9.78706			  -0.00327			 0.08512
	113.50			  9.86302			  -0.02078			 0.04113
	113.75			  9.83877			  0.02451			 0.05533
	114.00			  9.70939			  0.11897			 0.09112
	114.25			  9.78386			  0.08479			 0.03879
	114.50			  9.75548			  -0.00293			 0.00981
	114.75			  9.76217			  -0.03879			 -0.07478
	115.00			  9.78685			  -0.15631			 -0.13928
	115.25			  9.72255			  -0.21861			 -0.03477
	115.50			  9.76238			  -0.33360			 0.05485
	115.75			  9.68137			  -0.26019			 0.09901
	116.00			  9.73564			  -0.23696			 0.14242
	116.25			  9.77113			  -0.30649			 0.12656
	116.50			  9.76579			  -0.31676			 0.03169
	116.75			  9.76515			  -0.28747			 0.02439
	117.00			  9.74659			  -0.26120			 0.03109
	117.25			  9.75043			  -0.29185			 0.02176
	117.50			  9.73080			  -0.25093			 0.03730
	117.75			  9.75505			  -0.23342			 -0.06294
	118.00			  9.71750			  -0.22803			 -0.08418
	118.25			  9.68052			  -0.14857			 -0.10453
	118.50			  9.66281			  -0.17854			 -0.06202
	118.75			  9.74197			  -0.22972			 -0.03774
	119.00			  9.72831			  -0.08577			 -0.04020
	119.25			  9.80200			  -0.07465			 0.09138
	119.50			  9.76693			  -0.19419			 0.00496
	119.75			  9.89041			  -0.33377			 0.07000
	120.00			  9.87590			  -0.32047			 0.10121
	120.25			  9.79958			  -0.15193			 0.05665
	120.50			  9.75818			  -0.12567			 0.09125
	120.75			  9.81651			  -0.04637			 0.02324
	121.00			  9.87412			  -0.08105			 -0.03525
	121.25			  9.89425			  -0.09856			 -0.03123
	121.50			  9.90854			  -0.10462			 -0.10428
	121.75			  9.91110			  -0.12314			 -0.01167
	122.00			  9.93166			  -0.09637			 0.01899
	122.25			  9.91509			  -0.07768			 0.09161
	122.50			  9.87063			  -0.09149			 0.10922
	122.75			  9.93486			  -0.00647			 0.02224
	123.00			  9.81380			  -0.09486			 -0.10313
	123.25			  9.82675			  -0.02145			 0.00883
	123.50			  9.88784			  0.05263			 0.04598
	123.75			  9.82099			  0.08832			 -0.00588
	124.00			  9.82774			  0.10297			 0.00092
	124.25			  9.88009			  0.22100			 0.10457
	124.50			  9.87042			  0.20113			 0.01011
	124.75			  9.84538			  0.13109			 0.10711
	125.00			  9.91864			  0.08765			 0.03299
	125.25			  9.92440			  0.11964			 0.07981
	125.50			  9.76295			  0.08630			 -0.06721
	125.75			  9.88102			  0.02872			 -0.10918
	126.00			  9.94041			  0.08428			 -0.13597
	126.25			  9.87639			  0.08024			 0.00433
	126.50			  9.84197			  0.03630			 -0.07753
	126.75			  9.80762			  0.01677			 -0.14334
	127.00			  9.73258			  0.03798			 0.00146
	127.25			  9.63300			  -0.01573			 0.01563
	127.50			  9.68044			  0.19136			 0.22885
	127.75			  9.63912			  0.12520			 0.21743
	128.00			  9.55370			  0.11863			 0.14840
	128.25			  9.56508			  0.05920			 0.18390
	128.50			  9.59232			  0.23059			 0.14281
	128.75			  9.72724			  0.26881			 0.18101
	129.00			  9.72170			  0.32420			 0.16018
	129.25			  9.70306			  0.09540			 0.11010
	129.50			  9.73180			  0.14540			 0.08196
	129.75			  9.73734			  0.11728			 0.05952
	130.00			  9.61821			  0.23632			 0.03816
	130.25			  9.63741			  0.07250			 0.11939
	130.50			  9.67795			  0.14557			 0.07272
	130.75			  9.61842			  0.04556			 0.05583
	131.00			  9.64488			  -0.08391			 0.06364
	131.25			  9.70797			  -0.04990			 0.12740
	131.50			  9.75200			  -0.02751			 0.02186
	131.75			  9.82846			  0.01761			 -0.11606
	132.00			  9.78642			  -0.15799			 -0.00303
	132.25			  9.83415			  -0.15210			 0.11991
	132.50			  9.83528			  -0.12365			 0.11175
	132.75			  9.95243			  -0.07449			 0.14072
	133.00			  10.05670			  0.06189			 0.11778
	133.25			  10.03792			  0.12536			 0.15551
	133.50			  10.05634			  0.08513			 0.06987
	133.75			  9.99460			  0.17756			 -0.04106
	134.00			  9.88038			  0.23413			 0.03297
	134.25			  9.89041			  0.24524			 -0.04956
	134.50			  9.83486			  0.26157			 -0.17315
	134.75			  9.78813			  0.20163			 -0.18697
	135.00			  9.84012			  0.10600			 -0.09085
	135.25			  9.88358			  0.09051			 -0.06995
	135.50			  9.98472			  -0.05714			 -0.06179
	135.75			  10.00392			  -0.10917			 -0.06642
	136.00			  9.90555			  -0.17517			 -0.17959
	136.25			  9.96174			  -0.11776			 -0.19135
	136.50			  10.00093			  -0.11203			 -0.22210
	136.75			  9.93031			  -0.13442			 -0.23791
	137.00			  9.94880			  -0.28831			 -0.24776
	137.25			  9.89752			  -0.25043			 -0.18354
	137.50			  9.89161			  -0.22298			 -0.24561
	137.75			  9.99112			  -0.26137			 -0.20459
	138.00			  10.09517			  -0.13947			 -0.17626
	138.25			  10.04731			  -0.08509			 -0.15963
	138.50			  9.99901			  -0.01960			 -0.18137
	138.75			  9.92170			  -0.02499			 -0.18716
	139.00			  9.88678			  -0.11405			 -0.15804
	139.25			  9.88066			  -0.08492			 -0.01740
	139.50			  9.92326			  -0.11826			 -0.08629
	139.75			  9.84296			  -0.14453			 -0.03424
	140.00			  9.78358			  -0.06438			 -0.05044
	140.25			  9.71295			  -0.10176			 -0.07851
	140.50			  9.72127			  -0.15379			 -0.14016
	140.75			  9.71387			  -0.08408			 -0.06114
	141.00			  9.80577			  -0.14840			 -0.11892
	141.25			  9.80904			  -0.10765			 -0.12447
	141.50			  9.79524			  -0.00242			 -0.08144
	141.75			  9.85555			  -0.08391			 -0.06422
	142.00			  9.82341			  -0.05731			 -0.14993
	142.25			  9.93884			  0.09220			 -0.20325
	142.50			  9.93635			  0.15634			 -0.18275
	142.75			  9.91836			  0.13210			 -0.12292
	143.00			  10.04624			  0.04068			 -0.05840
	143.25			  10.00961			  -0.02667			 0.00373
	143.50			  9.93927			  -0.02869			 -0.03447
	143.75			  10.00463			  -0.15362			 -0.08727
	144.00			  9.97910			  -0.11776			 -0.04976
	144.25			  9.97120			  -0.12920			 -0.07271
	144.50			  10.00520			  -0.01556			 -0.06184
	144.75			  9.94723			  0.03899			 -0.11037
	145.00			  9.89610			  -0.02095			 -0.07660
	145.25			  9.94282			  -0.03913			 -0.06928
	145.50			  9.86957			  -0.00529			 0.00918
	145.75			  9.84944			  0.03209			 0.03715
	146.00			  9.78123			  0.11493			 0.04533
	146.25			  9.73734			  0.08816			 -0.03893
	146.50			  9.76217			  0.01559			 -0.07805
	146.75			  9.79510			  0.04017			 0.03161
	147.00			  9.87718			  -0.11220			 0.00858
	147.25			  9.93023			  -0.11371			 0.02536
	147.50			  9.86999			  -0.09536			 0.06211
	147.75			  9.76067			  -0.15783			 0.00751
	148.00			  9.84353			  -0.07364			 -0.02157
	148.25			  9.88422			  -0.18830			 0.05958
	148.50			  9.93336			  -0.14015			 0.11332
	148.75			  9.93493			  -0.05681			 0.06075
	149.00			  9.88685			  -0.02734			 0.02353
	149.25			  9.90136			  -0.02044			 0.02092
	149.50			  9.82846			  0.06374			 0.08615
	149.75			  9.88600			  0.09809			 0.11744
	150.00			  9.92917			  0.07368			 0.13338
	150.25			  9.94581			  0.12334			 0.12284
	150.50			  10.04389			  0.23615			 0.26287
	150.75			  10.07768			  0.16409			 0.40181
	151.00			  10.11217			  0.11257			 0.29797
	151.25			  10.03856			  0.15432			 0.27896
	151.50			  10.00840			  0.23581			 0.33971
	151.75			  9.97910			  0.25972			 0.19294
	152.00			  9.99140			  0.18901			 0.11780
	152.25			  10.01182			  0.22874			 0.07878
	152.50			  10.07782			  0.21342			 -0.01849
	152.75			  10.10378			  0.14405			 0.04667
	153.00			  10.04219			  0.09119			 0.17900
	153.25			  10.01829			  0.15550			 0.13051
	153.50			  10.04311			  0.09708			 0.08234
	153.75			  9.97298			  0.03781			 -0.04351
	154.00			  9.95065			  0.00027			 -0.17668
	154.25			  9.95285			  0.04000			 -0.09579
	154.50			  10.02291			  0.05701			 -0.09669
	154.75			  9.94282			  0.05617			 -0.14367
	155.00			  9.97028			  0.02131			 -0.03207
	155.25			  9.98699			  0.20382			 0.02740
	155.50			  9.99923			  0.15281			 0.04619
	155.75			  10.04098			  0.10213			 0.09690
	156.00			  9.96793			  0.14136			 0.05506
	156.25			  9.95470			  0.17066			 0.01927
	156.50			  9.89126			  0.13429			 -0.07903
	156.75			  9.73308			  0.22756			 -0.01305
	157.00			  9.79958			  0.11291			 -0.11321
	157.25			  9.75975			  0.14591			 -0.12553
	157.50			  9.88486			  0.18985			 -0.06131
	157.75			  9.99154			  0.10230			 0.11311
	158.00			  10.04204			  0.05819			 0.03856
	158.25			  10.00954			  0.07081			 0.01567
	158.50			  10.10513			  -0.02027			 -0.10641
	158.75			  10.09638			  -0.08307			 -0.04726
	159.00			  10.03059			  -0.16658			 -0.02380
	159.25			  10.01615			  -0.18476			 -0.04533
	159.50			  10.05378			  -0.14772			 0.05328
	159.75			  9.93059			  -0.05495			 0.01247
	160.00			  9.85193			  -0.03155			 0.03835
	160.25			  9.75705			  0.00347			 0.05924
	160.50			  9.69481			  -0.03273			 -0.03175
	160.75			  9.68165			  -0.06001			 -0.05928
	161.00			  9.71850			  0.04337			 -0.15076
	161.25			  9.77404			  -0.01623			 -0.16754
	161.50			  9.78230			  -0.03273			 -0.08566
	161.75			  9.81089			  -0.02061			 -0.09027
	162.00			  9.79922			  -0.11237			 -0.11265
	162.25			  9.84844			  -0.17298			 -0.09269
	162.50			  9.76352			  -0.26204			 -0.08269
	162.75			  9.68236			  -0.31070			 -0.06114
	163.00			  9.72959			  -0.31306			 0.13229
	163.25			  9.64808			  -0.16473			 0.12165
	163.50			  9.52034			  -0.19285			 0.01674
	163.75			  9.60242			  -0.21574			 0.10616
	164.00			  9.52468			  -0.19436			 0.11953
	164.25			  9.56615			  -0.15059			 0.04000
	164.50			  9.60420			  -0.23460			 -0.03523
	164.75			  9.52916			  -0.14857			 -0.01481
	165.00			  9.63599			  -0.05933			 0.07537
	165.25			  9.64687			  -0.09099			 -0.03065
	165.50			  9.57447			  -0.04721			 -0.00092
	165.75			  9.51508			  -0.07903			 -0.04878
	166.00			  9.47653			  0.04152			 -0.01077
	166.25			  9.62475			  0.12334			 -0.01362
	166.50			  9.67696			  0.02115			 -0.00807
	166.75			  9.71167			  0.02350			 -0.06468
	167.00			  9.75811			  -0.00899			 -0.05269
	167.25			  9.69168			  -0.05512			 -0.03786