--------------TurbSim v2.00.* User Time Series Input File-----------------------
     Time series input from low-res turbsim run
--------------------------------------------------------------------------------
          3 nComp - Number of velocity components in the file
          1 nPoints - Number of time series points contained in this file (-)
          1 RefPtID - Index of the reference point (1-nPoints)
     Pointyi Pointzi ! nPoints listed in order of increasing height
       (m)     (m)
       2.26334   94.00000
--------Time Series-------------------------------------------------------------
Elapsed Time         Point01u             Point01v           Point01w
         (s)            (m/s)                (m/s)              (m/s)
	0.00			  9.85591			  -0.54441			 -0.16639
	0.25			  9.65920			  -0.55016			 -0.03986
	0.50			  9.76340			  -0.43873			 -0.05843
	0.75			  9.78961			  -0.55313			 -0.11074
	1.00			  9.86150			  -0.43298			 -0.13391
	1.25			  9.86647			  -0.25572			 -0.10900
	1.50			  9.96291			  -0.29875			 0.00760
	1.75			  10.12544			  -0.37984			 -0.17172
	2.00			  9.88211			  -0.18256			 -0.09962
	2.25			  9.81944			  -0.20715			 -0.03990
	2.50			  10.00093			  -0.12982			 0.18289
	2.75			  10.14864			  0.00262			 0.34423
	3.00			  10.21980			  -0.05448			 0.33560
	3.25			  10.37477			  -0.25771			 0.39918
	3.50			  10.36720			  -0.19585			 0.11588
	3.75			  10.68045			  -0.28209			 0.07220
	4.00			  10.69951			  -0.40899			 0.13484
	4.25			  10.50974			  -0.35308			 0.13902
	4.50			  10.43050			  -0.28527			 0.11612
	4.75			  10.55873			  -0.09750			 0.20780
	5.00			  10.52403			  -0.04675			 0.36902
	5.25			  10.52849			  -0.05507			 0.20146
	5.50			  10.49607			  0.00599			 -0.10061
	5.75			  10.19225			  -0.02256			 0.13638
	6.00			  10.24622			  -0.06816			 0.42121
	6.25			  10.27263			  -0.25295			 0.47407
	6.50			  10.29376			  -0.30866			 0.15628
	6.75			  10.29811			  -0.24422			 0.28479
	7.00			  10.10627			  -0.11178			 0.36867
	7.25			  10.11259			  -0.25632			 0.33134
	7.50			  9.94862			  -0.17582			 0.22034
	7.75			  9.81862			  -0.40839			 0.45156
	8.00			  9.83902			  -0.54322			 0.46654
	8.25			  9.80608			  -0.61400			 0.31175
	8.50			  9.72228			  -0.39610			 0.36559
	8.75			  9.74963			  -0.29062			 0.58500
	9.00			  9.55665			  -0.44527			 0.26464
	9.25			  9.68540			  -0.34574			 0.24793
	9.50			  9.82255			  -0.32333			 0.28155
	9.75			  9.93328			  -0.35228			 0.21651
	10.00			  9.89154			  -0.30926			 0.15139
	10.25			  9.70705			  -0.05309			 0.31802
	10.50			  9.65091			  0.00282			 0.36796
	10.75			  9.74476			  -0.10385			 0.32748
	11.00			  9.97140			  -0.09790			 0.31376
	11.25			  10.13113			  0.00718			 0.44057
	11.50			  10.16076			  -0.18336			 0.46840
	11.75			  10.18811			  -0.35526			 0.47628
	12.00			  10.19308			  -0.39689			 0.57676
	12.25			  10.25430			  -0.12070			 0.40986
	12.50			  10.18013			  -0.32135			 0.42303
	12.75			  10.26175			  -0.24760			 0.32357
	13.00			  10.06909			  -0.04516			 0.41368
	13.25			  10.02216			  -0.07431			 0.21277
	13.50			  9.87362			  -0.01344			 -0.05827
	13.75			  9.47585			  -0.22955			 -0.28962
	14.00			  9.58379			  -0.29974			 -0.16399
	14.25			  9.79873			  -0.38579			 -0.33097
	14.50			  9.72932			  -0.42763			 -0.42514
	14.75			  9.85228			  -0.27059			 -0.50906
	15.00			  10.01874			  -0.23530			 -0.40870
	15.25			  10.04588			  -0.25969			 -0.21413
	15.50			  9.78174			  -0.20219			 -0.19600
	15.75			  9.65982			  -0.05607			 -0.27834
	16.00			  9.65661			  -0.18236			 -0.06576
	16.25			  9.74093			  -0.36517			 -0.18693
	16.50			  9.65526			  -0.38262			 -0.20278
	16.75			  9.66883			  -0.19684			 -0.29182
	17.00			  9.77532			  -0.36755			 -0.15555
	17.25			  9.76962			  -0.31977			 -0.44122
	17.50			  9.79821			  -0.14231			 -0.46002
	17.75			  9.76351			  -0.06994			 -0.28386
	18.00			  9.74642			  0.01650			 -0.40740
	18.25			  9.90946			  -0.23114			 -0.40255
	18.50			  10.07810			  -0.20497			 -0.46061
	18.75			  9.98446			  -0.16571			 -0.27669
	19.00			  9.77977			  -0.51605			 -0.24298
	19.25			  9.82514			  -0.35625			 -0.24614
	19.50			  9.69825			  -0.57573			 -0.14826
	19.75			  9.82618			  -0.43794			 -0.18536
	20.00			  9.95110			  -0.21627			 -0.03864
	20.25			  10.09664			  -0.11396			 -0.28619
	20.50			  9.90128			  -0.30569			 -0.30530
	20.75			  9.94841			  -0.30192			 -0.38962
	21.00			  10.18562			  -0.19842			 -0.34504
	21.25			  10.07395			  -0.17503			 -0.36648
	21.50			  9.89827			  -0.08541			 -0.11574
	21.75			  10.10544			  -0.17919			 -0.27594
	22.00			  10.30340			  -0.25493			 -0.24421
	22.25			  10.05065			  -0.27892			 -0.03789
	22.50			  10.12595			  -0.17741			 0.22006
	22.75			  10.10130			  -0.06737			 0.30051
	23.00			  10.20333			  -0.27436			 0.10003
	23.25			  9.92531			  -0.37588			 0.07102
	23.50			  9.82038			  -0.56166			 0.11375
	23.75			  9.81043			  -0.33364			 0.11627
	24.00			  9.85580			  -0.18950			 -0.02291
	24.25			  9.89506			  -0.39590			 -0.20341
	24.50			  9.92189			  -0.50951			 -0.29986
	24.75			  10.00683			  -0.38658			 -0.01948
	25.00			  9.94862			  -0.26881			 0.18037
	25.25			  9.98394			  -0.14231			 0.15620
	25.50			  9.97348			  -0.01344			 0.30316
	25.75			  10.03045			  0.10037			 0.05186
	26.00			  9.79179			  0.05516			 -0.16312
	26.25			  9.77956			  0.12238			 -0.13372
	26.50			  9.70778			  0.03415			 -0.33152
	26.75			  9.79106			  0.00421			 -0.09678
	27.00			  9.79759			  0.07301			 0.20252
	27.25			  9.82566			  0.23143			 0.18364
	27.50			  9.93349			  0.38350			 0.10595
	27.75			  9.88885			  0.18880			 -0.09193
	28.00			  9.85031			  0.26731			 -0.19990
	28.25			  9.94654			  0.32680			 -0.34642
	28.50			  10.00724			  0.34305			 -0.41091
	28.75			  10.09778			  0.34523			 -0.31067
	29.00			  10.08545			  0.17968			 -0.35730
	29.25			  10.16335			  0.12793			 -0.28449
	29.50			  10.29480			  -0.14251			 -0.37373
	29.75			  10.29200			  -0.15699			 -0.39884
	30.00			  10.08348			  -0.00015			 -0.17558
	30.25			  10.20354			  0.05992			 -0.15299
	30.50			  10.15434			  0.13844			 -0.20605
	30.75			  10.08007			  0.31906			 -0.19813
	31.00			  10.22032			  0.27743			 -0.35399
	31.25			  10.17630			  0.18741			 -0.31725
	31.50			  10.13207			  0.24431			 -0.26971
	31.75			  10.22591			  0.09720			 -0.24113
	32.00			  10.29314			  0.06091			 0.06381
	32.25			  10.12927			  0.30816			 0.02766
	32.50			  10.12730			  0.24927			 -0.24519
	32.75			  10.13559			  0.10691			 -0.10333
	33.00			  10.05375			  0.22092			 -0.01771
	33.25			  9.98715			  0.29606			 0.06822
	33.50			  9.99595			  0.05814			 -0.00596
	33.75			  9.95545			  -0.00670			 -0.18740
	34.00			  10.04402			  0.22112			 -0.28832
	34.25			  10.08939			  -0.01879			 -0.39719
	34.50			  9.97565			  -0.10821			 -0.35541
	34.75			  10.22457			  0.05516			 -0.14846
	35.00			  10.31313			  -0.08501			 -0.18756
	35.25			  10.40709			  0.06270			 -0.12457
	35.50			  10.09602			  -0.13260			 -0.16742
	35.75			  9.96322			  -0.49801			 -0.10301
	36.00			  10.24653			  -0.38321			 -0.11176
	36.25			  10.19691			  -0.32175			 -0.08638
	36.50			  10.21752			  -0.07708			 -0.08535
	36.75			  10.04101			  -0.01027			 -0.14393
	37.00			  10.02258			  0.03276			 -0.14629
	37.25			  10.24684			  -0.00868			 -0.23593
	37.50			  10.13082			  -0.10781			 -0.20964
	37.75			  10.07727			  -0.35288			 -0.06316
	38.00			  9.93743			  -0.30648			 -0.18693
	38.25			  9.99098			  -0.10008			 -0.23486
	38.50			  10.16097			  -0.03901			 -0.22410
	38.75			  10.22353			  -0.02355			 -0.17081
	39.00			  10.07230			  -0.18157			 -0.25201
	39.25			  10.13921			  -0.41751			 -0.31449
	39.50			  10.01015			  -0.29736			 -0.30830
	39.75			  10.15672			  -0.26643			 -0.33006
	40.00			  10.23607			  -0.19367			 -0.38217
	40.25			  10.06018			  -0.08323			 -0.40294
	40.50			  10.03760			  0.13051			 -0.23845
	40.75			  10.32505			  0.03514			 -0.36360
	41.00			  10.24352			  0.17730			 -0.01566
	41.25			  10.23109			  0.14696			 0.12814
	41.50			  10.29604			  0.00044			 0.36729
	41.75			  10.22550			  0.00342			 0.17686
	42.00			  10.23555			  0.00798			 0.17619
	42.25			  10.34607			  -0.14648			 0.14864
	42.50			  10.60483			  -0.23471			 0.26322
	42.75			  10.58152			  -0.38143			 0.04674
	43.00			  10.30029			  -0.30886			 0.15613
	43.25			  10.35809			  -0.43060			 0.10673
	43.50			  10.24218			  -0.41969			 0.00038
	43.75			  10.53905			  -0.38797			 0.17398
	44.00			  10.51854			  -0.52478			 0.26129
	44.25			  10.58981			  -0.53548			 0.45444
	44.50			  10.84774			  -0.49682			 0.28120
	44.75			  11.12379			  -0.29221			 0.25156
	45.00			  10.91093			  -0.14390			 0.38901
	45.25			  10.89135			  -0.11674			 0.32003
	45.50			  10.96883			  -0.24918			 0.26263
	45.75			  10.96116			  -0.36458			 0.35101
	46.00			  11.01472			  -0.06043			 0.19073
	46.25			  10.92449			  0.03038			 -0.00588
	46.50			  10.98561			  0.15291			 0.01158
	46.75			  11.06133			  -0.04318			 -0.02741
	47.00			  10.68604			  0.21120			 -0.09556
	47.25			  10.75202			  0.36110			 -0.00037
	47.50			  10.93579			  0.29606			 0.18403
	47.75			  10.91994			  0.59446			 0.08856
	48.00			  10.96261			  0.53300			 0.02167
	48.25			  11.03968			  0.34028			 0.12569
	48.50			  10.90450			  0.35713			 0.21975
	48.75			  10.38865			  0.28912			 0.16275
	49.00			  10.48125			  0.12912			 0.14722
	49.25			  10.58536			  -0.02732			 0.19704
	49.50			  10.64160			  0.01273			 0.17465
	49.75			  10.50176			  0.29289			 0.06637
	50.00			  10.37891			  0.12020			 0.18553
	50.25			  10.37705			  -0.08680			 0.27710
	50.50			  10.18676			  -0.06975			 0.21971
	50.75			  10.21618			  0.03395			 0.31053
	51.00			  10.24601			  0.09184			 0.17710
	51.25			  10.30951			  0.12000			 0.13251
	51.50			  10.32349			  -0.05726			 -0.06253
	51.75			  10.26859			  0.01115			 0.06456
	52.00			  10.45059			  0.01888			 0.02876
	52.25			  10.52766			  0.02007			 -0.16738
	52.50			  10.33478			  0.24114			 -0.38505
	52.75			  10.33944			  0.18979			 -0.16908
	53.00			  10.33613			  -0.06697			 -0.00549
	53.25			  10.36078			  0.00738			 0.02821
	53.50			  10.08960			  0.05596			 -0.03734
	53.75			  10.30184			  -0.09810			 -0.16616
	54.00			  10.51523			  -0.02375			 0.06026
	54.25			  10.67620			  0.14419			 0.33449
	54.50			  10.56360			  0.15331			 0.15750
	54.75			  10.65258			  0.10909			 0.21265
	55.00			  10.52144			  -0.07649			 0.45164
	55.25			  10.57210			  0.10691			 0.29689
	55.50			  10.44261			  0.02860			 0.17367
	55.75			  10.54858			  -0.05904			 0.22625
	56.00			  10.50156			  0.00282			 0.13854
	56.25			  10.67465			  0.17512			 0.02794
	56.50			  10.65869			  0.12555			 0.13378
	56.75			  10.57375			  -0.13081			 -0.04152
	57.00			  10.55024			  -0.03584			 -0.13352
	57.25			  10.68231			  0.23539			 -0.11283
	57.50			  10.89829			  0.08907			 -0.00789
	57.75			  10.84950			  0.12932			 -0.00931
	58.00			  10.89218			  -0.05270			 -0.09217
	58.25			  10.84567			  0.02701			 -0.16600
	58.50			  10.77657			  0.53974			 -0.16738
	58.75			  10.65704			  0.48561			 -0.02950
	59.00			  10.66615			  0.41324			 -0.16135
	59.25			  10.78631			  0.51178			 -0.01897
	59.50			  10.52849			  0.54529			 -0.14771
	59.75			  10.43132			  0.44596			 -0.13119
	60.00			  10.64481			  0.35515			 -0.37015
	60.25			  10.48664			  0.29844			 -0.28638
	60.50			  10.38771			  0.14558			 -0.16986
	60.75			  10.41185			  0.27981			 -0.30609
	61.00			  10.35218			  0.49176			 -0.07195
	61.25			  10.19898			  0.61112			 -0.24480
	61.50			  10.11497			  0.66009			 -0.17262
	61.75			  10.01926			  0.43525			 0.28920
	62.00			  9.83001			  0.30836			 0.12897
	62.25			  9.92976			  0.31728			 0.17666
	62.50			  9.80505			  0.18305			 0.19791
	62.75			  9.86461			  0.02661			 -0.01980
	63.00			  10.04402			  0.00857			 -0.02473
	63.25			  10.08918			  0.01036			 0.00275
	63.50			  10.20188			  0.27326			 -0.16801
	63.75			  10.12720			  0.12377			 -0.26120
	64.00			  10.21172			  0.05080			 -0.16569
	64.25			  10.26901			  0.00619			 -0.24362
	64.50			  10.21017			  -0.16412			 -0.14054
	64.75			  10.12067			  -0.12387			 -0.17550
	65.00			  10.07085			  -0.21032			 -0.00766
	65.25			  10.13890			  -0.15480			 -0.16911
	65.50			  10.17070			  0.12852			 -0.18051
	65.75			  10.18748			  0.49116			 -0.25244
	66.00			  10.43319			  0.11048			 -0.13250
	66.25			  10.33727			  0.01313			 -0.29584
	66.50			  10.62451			  0.09740			 -0.10210
	66.75			  10.74892			  0.19157			 -0.29833
	67.00			  10.62534			  0.20367			 -0.35071
	67.25			  10.69526			  0.26612			 -0.07502
	67.50			  10.61374			  0.54668			 -0.09998
	67.75			  10.44665			  0.53220			 -0.17558
	68.00			  10.39590			  0.36189			 -0.00896
	68.25			  10.64191			  0.21854			 -0.19474
	68.50			  10.65579			  0.24233			 -0.12899
	68.75			  10.82112			  0.14756			 -0.16289
	69.00			  10.99265			  0.15192			 0.05797
	69.25			  10.64181			  0.38231			 0.24572
	69.50			  10.28144			  0.46182			 0.43737
	69.75			  10.42987			  0.41562			 0.54349
	70.00			  10.44293			  0.20545			 0.50624
	70.25			  10.35405			  0.19911			 0.60695
	70.50			  10.51761			  0.36506			 0.43931
	70.75			  10.64326			  0.26216			 0.28585
	71.00			  10.55967			  0.40690			 0.35799
	71.25			  10.34431			  0.40253			 0.19006
	71.50			  10.23265			  0.23063			 0.22136
	71.75			  10.09301			  0.28853			 0.36433
	72.00			  10.05106			  0.15271			 0.18616
	72.25			  10.08162			  0.09878			 0.18589
	72.50			  9.99658			  0.22944			 0.27789
	72.75			  9.82359			  0.15985			 0.21064
	73.00			  9.87973			  0.20426			 0.00338
	73.25			  9.78495			  0.13606			 -0.00324
	73.50			  9.87176			  -0.02553			 -0.02989
	73.75			  9.95825			  -0.11614			 0.06613
	74.00			  10.02744			  0.19613			 0.13697
	74.25			  10.06246			  -0.00333			 0.04465
	74.50			  9.86026			  -0.07946			 0.23776
	74.75			  9.83944			  -0.03941			 0.51483
	75.00			  10.01677			  -0.05844			 0.38140
	75.25			  10.10430			  0.15906			 0.17103
	75.50			  10.03335			  -0.06975			 0.18139
	75.75			  9.95348			  -0.24522			 0.37876
	76.00			  9.85073			  -0.21349			 0.56730
	76.25			  9.84534			  -0.31798			 0.57554
	76.50			  10.03780			  -0.60508			 0.56525
	76.75			  10.02496			  -0.64810			 0.61223
	77.00			  10.12720			  -0.72979			 0.54211
	77.25			  10.12792			  -0.83190			 0.51286
	77.50			  10.09260			  -0.55472			 0.51412
	77.75			  10.08866			  -0.44666			 0.36039
	78.00			  9.99917			  -0.73911			 0.22093
	78.25			  10.09125			  -0.75378			 0.40509
	78.50			  10.03045			  -0.59298			 0.33433
	78.75			  10.07603			  -0.59021			 0.59773
	79.00			  10.16200			  -0.91914			 0.42614
	79.25			  10.47473			  -0.97168			 0.49489
	79.50			  10.59986			  -0.96296			 0.45243
	79.75			  10.46965			  -0.75477			 0.49563
	80.00			  10.28713			  -0.84974			 0.53174
	80.25			  10.12979			  -0.93599			 0.42851
	80.50			  10.03946			  -0.84697			 0.50387
	80.75			  9.96654			  -0.85252			 0.55358
	81.00			  10.04547			  -0.71294			 0.69801
	81.25			  9.98642			  -0.67963			 0.54601
	81.50			  9.84306			  -0.64255			 0.55488
	81.75			  9.85425			  -0.71393			 0.57711
	82.00			  9.87621			  -0.84300			 0.43162
	82.25			  9.85508			  -0.85153			 0.35558
	82.50			  9.81354			  -0.72146			 0.26417
	82.75			  9.81727			  -0.85351			 0.10149
	83.00			  9.74321			  -0.66258			 0.03156
	83.25			  9.91215			  -0.68538			 0.20627
	83.50			  9.78164			  -0.68320			 0.28002
	83.75			  9.98021			  -0.53449			 0.34265
	84.00			  10.22923			  -0.61816			 0.24285
	84.25			  10.13859			  -0.60587			 0.19042
	84.50			  10.10534			  -0.75041			 0.17966
	84.75			  10.01719			  -0.79958			 0.11178
	85.00			  10.06795			  -0.56364			 -0.02445
	85.25			  9.94520			  -0.51209			 -0.13533
	85.50			  10.05054			  -0.37647			 -0.06702
	85.75			  10.17495			  -0.33939			 -0.07948
	86.00			  10.11663			  -0.12606			 -0.05788
	86.25			  9.95338			  -0.21567			 0.04631
	86.50			  9.78153			  0.07023			 0.03763
	86.75			  9.94737			  0.12575			 0.10934
	87.00			  9.90811			  0.05457			 -0.05717
	87.25			  10.11114			  0.29824			 -0.18744
	87.50			  10.15237			  0.43545			 -0.16403
	87.75			  10.07872			  0.36328			 -0.07282
	88.00			  10.26320			  0.21973			 -0.27661
	88.25			  10.29065			  0.25760			 -0.06694
	88.50			  10.07955			  0.37597			 -0.23041
	88.75			  10.07043			  0.25859			 -0.31591
	89.00			  10.27833			  0.08193			 -0.32174
	89.25			  10.49493			  0.20783			 -0.07739
	89.50			  10.40149			  0.09740			 -0.15370
	89.75			  10.31748			  0.02939			 -0.06793
	90.00			  10.58505			  -0.20001			 -0.07952
	90.25			  10.49461			  -0.40145			 -0.22067
	90.50			  10.32411			  -0.49761			 -0.20428
	90.75			  10.39849			  -0.54679			 -0.13466
	91.00			  10.49089			  -0.53291			 -0.02626
	91.25			  10.55418			  -0.59219			 -0.07502
	91.50			  10.32463			  -0.73713			 -0.02914
	91.75			  10.41796			  -0.31877			 0.07532
	92.00			  10.28133			  -0.39471			 -0.07699
	92.25			  10.19028			  -0.60448			 -0.00352
	92.50			  10.29024			  -0.39729			 0.22203
	92.75			  10.49026			  -0.53211			 0.21509
	93.00			  10.47483			  -0.53548			 0.12380
	93.25			  10.46095			  -0.42247			 -0.17818
	93.50			  10.24891			  -0.26782			 0.07165
	93.75			  10.28081			  -0.58188			 -0.02729
	94.00			  10.28651			  -0.83626			 -0.07400
	94.25			  10.23399			  -0.44844			 0.05309
	94.50			  9.89185			  -0.50753			 0.15435
	94.75			  10.14315			  -0.47997			 0.10725
	95.00			  10.24042			  -0.31342			 -0.15461
	95.25			  10.17599			  -0.53370			 -0.14846
	95.50			  10.02340			  -0.46688			 0.19838
	95.75			  9.90148			  -0.55630			 0.21494
	96.00			  10.13393			  -0.72285			 0.24336
	96.25			  9.92935			  -0.73851			 0.42322
	96.50			  9.98756			  -0.73851			 0.43260
	96.75			  10.12140			  -0.63065			 0.58503
	97.00			  10.08732			  -0.59536			 0.33575
	97.25			  10.00963			  -0.53548			 0.34155
	97.50			  10.06297			  -0.63442			 0.38341
	97.75			  10.23285			  -0.49702			 0.65835
	98.00			  10.31655			  -0.45003			 0.62268
	98.25			  10.18065			  -0.49266			 0.41404
	98.50			  10.15403			  -0.25156			 0.39307
	98.75			  10.31065			  -0.20457			 0.39043
	99.00			  10.46188			  -0.12784			 0.30505
	99.25			  10.40512			  -0.07450			 0.21947
	99.50			  10.45950			  -0.32591			 0.22416
	99.75			  10.38585			  -0.57950			 0.09889
	100.00			  10.21348			  -0.75239			 0.10248
	100.25			  9.98321			  -0.86660			 0.01580
	100.50			  10.04785			  -0.82873			 0.05076
	100.75			  9.90811			  -0.72305			 -0.02473
	101.00			  9.90532			  -0.73455			 0.05490
	101.25			  9.85031			  -0.66773			 0.29097
	101.50			  9.84161			  -0.74208			 0.26665
	101.75			  9.82369			  -0.83031			 0.21167
	102.00			  9.91454			  -0.79998			 -0.02950
	102.25			  9.96301			  -0.79125			 -0.14314
	102.50			  10.05811			  -0.67606			 -0.30274
	102.75			  10.18344			  -0.63403			 -0.33317
	103.00			  10.25927			  -0.49444			 -0.29155
	103.25			  10.30588			  -0.62490			 -0.23829
	103.50			  10.46882			  -0.59655			 0.08415
	103.75			  10.49089			  -0.51724			 -0.03860
	104.00			  10.52061			  -0.51764			 0.08454
	104.25			  10.69091			  -0.54778			 -0.06481
	104.50			  10.73597			  -0.52537			 -0.18461
	104.75			  10.64709			  -0.42326			 -0.13845
	105.00			  10.56567			  -0.48255			 -0.04191
	105.25			  10.64367			  -0.58466			 -0.00005
	105.50			  10.76736			  -0.72305			 -0.26695
	105.75			  10.70728			  -0.54203			 -0.13301
	106.00			  10.71525			  -0.61618			 -0.20203
	106.25			  10.46354			  -0.60984			 -0.04203
	106.50			  10.58536			  -0.46530			 -0.01357
	106.75			  10.28061			  -0.43040			 -0.03391
	107.00			  10.06183			  -0.51348			 -0.06856
	107.25			  9.96799			  -0.79978			 -0.10999
	107.50			  10.06909			  -0.69846			 0.02061
	107.75			  10.07250			  -0.71948			 0.03275
	108.00			  9.81893			  -0.80196			 0.05726
	108.25			  9.66541			  -0.76806			 -0.02039
	108.50			  9.68748			  -0.76112			 0.15439
	108.75			  9.76921			  -0.86501			 0.37344
	109.00			  9.80556			  -0.57950			 0.28936
	109.25			  9.80878			  -0.70421			 0.02049
	109.50			  9.90573			  -0.57197			 -0.16801
	109.75			  9.89351			  -0.48255			 -0.03296
	110.00			  9.82535			  -0.61658			 -0.10683
	110.25			  9.76848			  -0.48056			 0.03014
	110.50			  9.66976			  -0.42346			 0.05821
	110.75			  9.95442			  -0.31084			 -0.07222
	111.00			  9.96591			  -0.30331			 -0.01909
	111.25			  9.97741			  -0.54381			 -0.11511
	111.50			  10.01315			  -0.48017			 -0.38998
	111.75			  9.83685			  -0.22717			 -0.43893
	112.00			  9.82618			  -0.06380			 -0.13108
	112.25			  9.84244			  0.04386			 -0.01156
	112.50			  9.83819			  -0.10008			 0.09861
	112.75			  9.97493			  -0.29320			 0.04587
	113.00			  9.75387			  -0.30727			 0.05025
	113.25			  9.83364			  -0.18613			 -0.03044
	113.50			  9.91257			  -0.21310			 -0.08224
	113.75			  9.89610			  -0.00075			 -0.15540
	114.00			  9.93183			  0.10235			 0.14710
	114.25			  9.84120			  -0.10385			 0.23788
	114.50			  9.74176			  0.02542			 -0.03352
	114.75			  9.86243			  0.19395			 0.16507
	115.00			  10.18862			  0.18920			 0.17942
	115.25			  10.21980			  0.13427			 0.10047
	115.50			  10.14222			  0.06230			 0.05640
	115.75			  9.97358			  0.06984			 0.00878
	116.00			  9.92728			  0.18345			 0.11060
	116.25			  9.95442			  0.28080			 0.19235
	116.50			  9.79572			  0.26533			 0.36339
	116.75			  9.70674			  0.31569			 0.19397
	117.00			  9.83964			  0.25879			 -0.00517
	117.25			  9.87424			  0.21219			 -0.14428
	117.50			  9.90055			  0.29408			 -0.08350
	117.75			  9.87642			  0.21993			 -0.18465
	118.00			  9.83239			  0.37240			 -0.25323
	118.25			  9.88895			  0.11048			 -0.07522
	118.50			  10.11539			  0.04941			 0.01406
	118.75			  10.14812			  0.08332			 -0.02362
	119.00			  10.01512			  0.09145			 0.18029
	119.25			  9.81561			  0.10374			 -0.01732
	119.50			  9.74279			  0.20188			 0.03117
	119.75			  9.96384			  0.17651			 0.03168
	120.00			  9.89724			  0.10434			 -0.11365
	120.25			  9.86077			  0.27544			 -0.01960
	120.50			  9.84938			  0.35812			 0.13657
	120.75			  9.77470			  0.50405			 0.26035
	121.00			  9.71275			  0.51218			 0.59497
	121.25			  9.83343			  0.52903			 0.34005
	121.50			  9.89858			  0.36506			 0.17505
	121.75			  9.79075			  0.30142			 0.21107
	122.00			  9.87507			  0.19713			 0.17110
	122.25			  9.91889			  0.16917			 0.03968
	122.50			  10.03387			  0.11227			 0.07477
	122.75			  9.93152			  0.19951			 0.34864
	123.00			  9.81478			  0.14934			 0.34064
	123.25			  9.63237			  0.21874			 0.32988
	123.50			  9.71710			  0.27287			 0.18049
	123.75			  9.76019			  0.14736			 0.00295
	124.00			  9.64024			  0.21834			 -0.34579
	124.25			  9.89019			  0.20327			 -0.10273
	124.50			  9.95400			  0.22032			 -0.09942
	124.75			  9.82442			  0.01412			 -0.19005
	125.00			  9.69027			  -0.08878			 -0.16817
	125.25			  9.73129			  -0.24720			 -0.26447
	125.50			  9.74963			  -0.27535			 -0.25103
	125.75			  9.54960			  -0.31144			 -0.35678
	126.00			  9.78226			  -0.37033			 -0.09406
	126.25			  9.88387			  -0.48552			 -0.12816
	126.50			  9.67795			  -0.45459			 -0.25091
	126.75			  9.82887			  -0.22935			 -0.08243
	127.00			  9.87590			  -0.27357			 -0.03793
	127.25			  9.84285			  -0.61678			 -0.04648
	127.50			  9.92396			  -0.71710			 -0.08791
	127.75			  9.96125			  -0.53152			 0.01355
	128.00			  9.91132			  -0.82615			 0.09041
	128.25			  10.06805			  -0.75239			 0.06803
	128.50			  10.05365			  -0.84320			 0.01446
	128.75			  9.93049			  -0.60230			 -0.06257
	129.00			  10.01284			  -0.25632			 0.14572
	129.25			  9.84130			  -0.22420			 0.24892
	129.50			  9.97607			  -0.38262			 0.14438
	129.75			  10.03511			  -0.24502			 0.35996
	130.00			  10.07799			  -0.42307			 0.49418
	130.25			  10.05842			  -0.61915			 0.40202
	130.50			  10.02662			  -0.75180			 0.08833
	130.75			  10.03697			  -0.71948			 0.14509
	131.00			  9.92034			  -0.70005			 0.13409
	131.25			  10.04391			  -0.68141			 0.09976
	131.50			  10.12450			  -0.65921			 0.05514
	131.75			  10.16066			  -0.46688			 0.14458
	132.00			  10.08856			  -0.26960			 0.19310
	132.25			  10.19111			  -0.28725			 -0.00987
	132.50			  10.10938			  -0.17067			 0.12392
	132.75			  10.01149			  -0.22559			 0.28092
	133.00			  10.00548			  0.00698			 0.39181
	133.25			  9.90708			  -0.20160			 0.23204
	133.50			  10.07178			  -0.24819			 0.20130
	133.75			  9.94520			  -0.04754			 0.10894
	134.00			  9.97420			  -0.12526			 0.01532
	134.25			  9.81592			  -0.35189			 -0.01530
	134.50			  9.85601			  -0.20973			 -0.12414
	134.75			  10.01615			  -0.44567			 0.04536
	135.00			  10.04329			  -0.49464			 -0.17854
	135.25			  10.14843			  -0.51249			 -0.26482
	135.50			  10.47234			  -0.53866			 -0.21977
	135.75			  10.50663			  -0.44785			 0.05770
	136.00			  10.40936			  -0.51110			 0.29638
	136.25			  10.30640			  -0.27317			 0.12317
	136.50			  10.53460			  -0.29498			 0.11525
	136.75			  10.43889			  -0.38757			 0.32996
	137.00			  10.51927			  -0.50713			 0.38365
	137.25			  10.51979			  -0.31996			 0.22452
	137.50			  10.48633			  -0.46133			 0.18695
	137.75			  10.47038			  -0.56998			 0.13646
	138.00			  10.40677			  -0.67110			 0.08844
	138.25			  10.34690			  -0.65762			 -0.04286
	138.50			  10.16801			  -0.77123			 -0.15488
	138.75			  10.35643			  -0.62034			 -0.22560
	139.00			  10.22747			  -0.54877			 -0.23447
	139.25			  10.21473			  -0.50059			 -0.17424
	139.50			  10.32877			  -0.27198			 -0.21685
	139.75			  10.29977			  -0.30192			 -0.30456
	140.00			  10.30920			  -0.30609			 -0.17499
	140.25			  10.28724			  -0.06142			 -0.17010
	140.50			  10.35809			  0.13527			 -0.11890
	140.75			  10.30723			  0.05735			 -0.10955
	141.00			  10.34576			  0.16758			 -0.19229
	141.25			  10.25243			  0.09898			 -0.29628
	141.50			  10.21970			  0.05992			 -0.18240
	141.75			  10.24881			  0.17432			 0.06180
	142.00			  9.93142			  0.05338			 -0.07873
	142.25			  10.02838			  0.27168			 -0.03663
	142.50			  10.12720			  0.26018			 -0.23080
	142.75			  10.18262			  0.05853			 -0.30337
	143.00			  10.19432			  0.03216			 -0.12327
	143.25			  10.12761			  0.06666			 -0.01574
	143.50			  10.39362			  0.23024			 -0.19135
	143.75			  10.30267			  0.24531			 -0.11728
	144.00			  10.34203			  0.21854			 -0.14148
	144.25			  10.08566			  0.11009			 -0.32080
	144.50			  10.06981			  0.29765			 -0.26049
	144.75			  10.18842			  0.62420			 -0.21318
	145.00			  10.12875			  0.35376			 -0.25272
	145.25			  10.03956			  0.27862			 -0.38718
	145.50			  9.99999			  0.18226			 -0.48020
	145.75			  10.03604			  0.21973			 -0.58159
	146.00			  10.26890			  0.10453			 -0.37188
	146.25			  10.40905			  0.16639			 -0.36830
	146.50			  10.40957			  0.24887			 -0.31220
	146.75			  10.31811			  0.15033			 -0.12047
	147.00			  10.39579			  0.08292			 -0.10652
	147.25			  10.45318			  0.32323			 -0.23293
	147.50			  10.65061			  0.26097			 -0.17877
	147.75			  10.53460			  0.46241			 0.03022
	148.00			  10.66056			  0.46023			 0.17343
	148.25			  10.70448			  0.41661			 0.00046
	148.50			  10.66191			  0.32858			 0.00464
	148.75			  10.56288			  0.27663			 0.08793
	149.00			  10.61612			  0.08609			 -0.08736
	149.25			  10.80838			  0.31133			 -0.04412
	149.50			  10.83945			  0.22925			 -0.08906
	149.75			  10.71018			  0.18285			 -0.08322
	150.00			  10.66595			  0.11187			 -0.31622
	150.25			  10.53843			  -0.03564			 -0.42324
	150.50			  10.41527			  -0.07609			 -0.28489
	150.75			  10.23244			  0.32184			 -0.18011
	151.00			  10.28827			  0.19038			 -0.01810
	151.25			  10.49234			  -0.13240			 0.07311
	151.50			  10.46281			  -0.07728			 -0.16431
	151.75			  10.15765			  -0.08799			 0.00492
	152.00			  10.07882			  -0.00709			 0.06038
	152.25			  10.15786			  0.21457			 -0.24480
	152.50			  10.49710			  0.36407			 -0.20688
	152.75			  10.49865			  0.37002			 -0.24078
	153.00			  10.60535			  0.06369			 -0.18090
	153.25			  10.40118			  0.28575			 -0.19746
	153.50			  10.39124			  0.07995			 -0.31165
	153.75			  10.54620			  0.04366			 -0.34070
	154.00			  10.44189			  0.06191			 -0.19635
	154.25			  10.22540			  0.06766			 0.12321
	154.50			  10.30702			  -0.06994			 0.20654
	154.75			  10.25699			  -0.02276			 -0.18882
	155.00			  10.21597			  0.02701			 -0.07845
	155.25			  10.39362			  0.01095			 -0.14018
	155.50			  10.46675			  0.02760			 -0.19253
	155.75			  10.40108			  0.09561			 -0.18701
	156.00			  10.30806			  -0.14271			 -0.12642
	156.25			  10.14398			  -0.30807			 -0.00159
	156.50			  10.17795			  -0.58604			 -0.02630
	156.75			  9.88791			  -0.66277			 -0.06639
	157.00			  9.89175			  -0.62411			 -0.09087
	157.25			  9.86264			  -0.32988			 0.03121
	157.50			  9.99243			  -0.45975			 -0.06249
	157.75			  10.06577			  -0.55749			 -0.07814
	158.00			  10.24373			  -0.55016			 -0.04601
	158.25			  10.45246			  -0.25374			 -0.16647
	158.50			  10.46157			  -0.31540			 -0.20219
	158.75			  10.54081			  -0.55928			 -0.16576
	159.00			  10.52051			  -0.79145			 -0.26001
	159.25			  10.55563			  -0.72939			 -0.30791
	159.50			  10.67993			  -0.60766			 -0.29545
	159.75			  10.67237			  -0.30232			 -0.12236
	160.00			  10.53646			  -0.44606			 -0.29939
	160.25			  10.60079			  -0.45598			 -0.25804
	160.50			  10.58815			  -0.50039			 -0.17586
	160.75			  10.57469			  -0.47898			 -0.23549
	161.00			  10.64616			  -0.57197			 -0.19229
	161.25			  10.76539			  -0.65484			 -0.36518
	161.50			  10.89673			  -0.46153			 -0.29096
	161.75			  10.73877			  -0.28090			 -0.35241
	162.00			  10.67796			  -0.12189			 -0.27432
	162.25			  10.79802			  0.00996			 -0.38237
	162.50			  11.00954			  0.25324			 -0.32789
	162.75			  11.10401			  0.17452			 -0.27247
	163.00			  11.10380			  0.25066			 -0.09998
	163.25			  10.90253			  0.30320			 -0.01806
	163.50			  10.84401			  0.30122			 -0.20317
	163.75			  10.83127			  -0.00491			 -0.26490
	164.00			  10.85882			  -0.08600			 -0.19261
	164.25			  10.78165			  0.15589			 -0.24011
	164.50			  10.83759			  0.25562			 -0.27799
	164.75			  10.87923			  0.10453			 -0.27531
	165.00			  10.78144			  0.21993			 -0.15130
	165.25			  10.64803			  0.32640			 -0.17392