--------------TurbSim v2.00.* User Time Series Input File-----------------------
     Time series input from low-res turbsim run
--------------------------------------------------------------------------------
          3 nComp - Number of velocity components in the file
          1 nPoints - Number of time series points contained in this file (-)
          1 RefPtID - Index of the reference point (1-nPoints)
     Pointyi Pointzi ! nPoints listed in order of increasing height
       (m)     (m)
       2.26334   94.00000
--------Time Series-------------------------------------------------------------
Elapsed Time         Point01u             Point01v           Point01w
         (s)            (m/s)                (m/s)              (m/s)
	0.00			  9.91324			  -0.37104			 -0.09984
	0.25			  9.79530			  -0.37436			 -0.02392
	0.50			  9.85780			  -0.30750			 -0.03506
	0.75			  9.87349			  -0.37628			 -0.06644
	1.00			  9.91666			  -0.30401			 -0.08035
	1.25			  9.91961			  -0.19771			 -0.06540
	1.50			  9.97753			  -0.22354			 0.00456
	1.75			  10.07505			  -0.27224			 -0.10303
	2.00			  9.92900			  -0.15390			 -0.05977
	2.25			  9.89142			  -0.16874			 -0.02394
	2.50			  10.00036			  -0.12213			 0.10973
	2.75			  10.08895			  -0.04271			 0.20654
	3.00			  10.13165			  -0.07710			 0.20136
	3.25			  10.22459			  -0.19893			 0.23951
	3.50			  10.22009			  -0.16193			 0.06953
	3.75			  10.40806			  -0.21360			 0.04332
	4.00			  10.41948			  -0.28970			 0.08090
	4.25			  10.30557			  -0.25619			 0.08341
	4.50			  10.25806			  -0.21552			 0.06967
	4.75			  10.33500			  -0.10276			 0.12468
	5.00			  10.31412			  -0.07238			 0.22141
	5.25			  10.31691			  -0.07727			 0.12087
	5.50			  10.29742			  -0.04079			 -0.06036
	5.75			  10.11511			  -0.05790			 0.08183
	6.00			  10.14749			  -0.08530			 0.25273
	6.25			  10.16333			  -0.19597			 0.28444
	6.50			  10.17599			  -0.22948			 0.09377
	6.75			  10.17863			  -0.19090			 0.17087
	7.00			  10.06348			  -0.11131			 0.22120
	7.25			  10.06736			  -0.19806			 0.19880
	7.50			  9.96891			  -0.14988			 0.13220
	7.75			  9.89096			  -0.28935			 0.27094
	8.00			  9.90315			  -0.37034			 0.27993
	8.25			  9.88343			  -0.41276			 0.18705
	8.50			  9.83311			  -0.28202			 0.21936
	8.75			  9.84957			  -0.21866			 0.35100
	9.00			  9.73373			  -0.31152			 0.15879
	9.25			  9.81098			  -0.25182			 0.14876
	9.50			  9.89329			  -0.23821			 0.16893
	9.75			  9.95975			  -0.25566			 0.12991
	10.00			  9.93467			  -0.22983			 0.09084
	10.25			  9.82403			  -0.07605			 0.19081
	10.50			  9.79025			  -0.04271			 0.22078
	10.75			  9.84662			  -0.10660			 0.19649
	11.00			  9.98258			  -0.10293			 0.18826
	11.25			  10.07839			  -0.03992			 0.26434
	11.50			  10.09625			  -0.15425			 0.28104
	11.75			  10.11263			  -0.25741			 0.28577
	12.00			  10.11558			  -0.28237			 0.34605
	12.25			  10.15231			  -0.11672			 0.24592
	12.50			  10.10782			  -0.23716			 0.25382
	12.75			  10.15681			  -0.19282			 0.19414
	13.00			  10.04120			  -0.07151			 0.24821
	13.25			  10.01309			  -0.08879			 0.12766
	13.50			  9.92396			  -0.05231			 -0.03496
	13.75			  9.68528			  -0.18200			 -0.17377
	14.00			  9.75003			  -0.22424			 -0.09839
	14.25			  9.87900			  -0.27591			 -0.19858
	14.50			  9.83731			  -0.30087			 -0.25508
	14.75			  9.91115			  -0.20661			 -0.30543
	15.00			  10.01099			  -0.18549			 -0.24522
	15.25			  10.02730			  -0.20015			 -0.12848
	15.50			  9.86883			  -0.16559			 -0.11760
	15.75			  9.79561			  -0.07797			 -0.16701
	16.00			  9.79367			  -0.15372			 -0.03946
	16.25			  9.84429			  -0.26352			 -0.11216
	16.50			  9.79289			  -0.27399			 -0.12167
	16.75			  9.80105			  -0.16245			 -0.17509
	17.00			  9.86495			  -0.26491			 -0.09333
	17.25			  9.86153			  -0.23611			 -0.26473
	17.50			  9.87861			  -0.12964			 -0.27601
	17.75			  9.85788			  -0.08617			 -0.17032
	18.00			  9.84763			  -0.03433			 -0.24444
	18.25			  9.94546			  -0.18287			 -0.24153
	18.50			  10.04656			  -0.16734			 -0.27637
	18.75			  9.99042			  -0.14378			 -0.16601
	19.00			  9.86766			  -0.35393			 -0.14579
	19.25			  9.89484			  -0.25811			 -0.14768
	19.50			  9.81867			  -0.38972			 -0.08896
	19.75			  9.89546			  -0.30698			 -0.11121
	20.00			  9.97039			  -0.17397			 -0.02318
	20.25			  10.05774			  -0.11271			 -0.17171
	20.50			  9.94049			  -0.22773			 -0.18318
	20.75			  9.96883			  -0.22546			 -0.23377
	21.00			  10.11116			  -0.16332			 -0.20702
	21.25			  10.04415			  -0.14936			 -0.21989
	21.50			  9.93871			  -0.09560			 -0.06945
	21.75			  10.06302			  -0.15180			 -0.16556
	22.00			  10.18181			  -0.19736			 -0.14652
	22.25			  10.03017			  -0.21168			 -0.02273
	22.50			  10.07536			  -0.15076			 0.13204
	22.75			  10.06053			  -0.08460			 0.18031
	23.00			  10.12171			  -0.20888			 0.06002
	23.25			  9.95494			  -0.26980			 0.04261
	23.50			  9.89197			  -0.38134			 0.06825
	23.75			  9.88607			  -0.24449			 0.06976
	24.00			  9.91324			  -0.15809			 -0.01375
	24.25			  9.93677			  -0.28184			 -0.12205
	24.50			  9.95292			  -0.35009			 -0.17992
	24.75			  10.00385			  -0.27626			 -0.01169
	25.00			  9.96891			  -0.20557			 0.10822
	25.25			  9.99011			  -0.12964			 0.09372
	25.50			  9.98382			  -0.05231			 0.18189
	25.75			  10.01798			  0.01594			 0.03112
	26.00			  9.87481			  -0.01129			 -0.09787
	26.25			  9.86751			  0.02920			 -0.08023
	26.50			  9.82442			  -0.02386			 -0.19891
	26.75			  9.87442			  -0.04184			 -0.05807
	27.00			  9.87830			  -0.00047			 0.12151
	27.25			  9.89515			  0.09449			 0.11018
	27.50			  9.95983			  0.18578			 0.06357
	27.75			  9.93304			  0.06900			 -0.05516
	28.00			  9.90990			  0.11613			 -0.11994
	28.25			  9.96767			  0.15174			 -0.20785
	28.50			  10.00408			  0.16151			 -0.24654
	28.75			  10.05844			  0.16291			 -0.18640
	29.00			  10.05106			  0.06342			 -0.21438
	29.25			  10.09780			  0.03235			 -0.17067
	29.50			  10.17661			  -0.12981			 -0.22424
	29.75			  10.17498			  -0.13854			 -0.23931
	30.00			  10.04982			  -0.04446			 -0.10535
	30.25			  10.12187			  -0.00832			 -0.09180
	30.50			  10.09237			  0.03863			 -0.12363
	30.75			  10.04780			  0.14720			 -0.11888
	31.00			  10.13189			  0.12207			 -0.21239
	31.25			  10.10549			  0.06813			 -0.19035
	31.50			  10.07901			  0.10217			 -0.16183
	31.75			  10.13530			  0.01402			 -0.14468
	32.00			  10.17568			  -0.00780			 0.03828
	32.25			  10.07730			  0.14057			 0.01660
	32.50			  10.07614			  0.10513			 -0.14712
	32.75			  10.08111			  0.01978			 -0.06200
	33.00			  10.03204			  0.08820			 -0.01063
	33.25			  9.99205			  0.13341			 0.04093
	33.50			  9.99733			  -0.00937			 -0.00358
	33.75			  9.97303			  -0.04830			 -0.11244
	34.00			  10.02621			  0.08838			 -0.17299
	34.25			  10.05339			  -0.05563			 -0.23831
	34.50			  9.98514			  -0.10921			 -0.21324
	34.75			  10.13445			  -0.01112			 -0.08908
	35.00			  10.18763			  -0.09525			 -0.11254
	35.25			  10.24400			  -0.00675			 -0.07474
	35.50			  10.05735			  -0.12388			 -0.10045
	35.75			  9.97769			  -0.34311			 -0.06181
	36.00			  10.14765			  -0.27434			 -0.06706
	36.25			  10.11791			  -0.23733			 -0.05183
	36.50			  10.13026			  -0.09054			 -0.05121
	36.75			  10.02435			  -0.05057			 -0.08636
	37.00			  10.01325			  -0.02473			 -0.08778
	37.25			  10.14788			  -0.04952			 -0.14156
	37.50			  10.07823			  -0.10904			 -0.12578
	37.75			  10.04609			  -0.25601			 -0.03790
	38.00			  9.96223			  -0.22826			 -0.11216
	38.25			  9.99438			  -0.10433			 -0.14092
	38.50			  10.09633			  -0.06767			 -0.13446
	38.75			  10.13390			  -0.05842			 -0.10249
	39.00			  10.04314			  -0.15320			 -0.15121
	39.25			  10.08328			  -0.29476			 -0.18869
	39.50			  10.00587			  -0.22267			 -0.18498
	39.75			  10.09384			  -0.20417			 -0.19804
	40.00			  10.14144			  -0.16053			 -0.22930
	40.25			  10.03584			  -0.09420			 -0.24177
	40.50			  10.02233			  0.03409			 -0.14307
	40.75			  10.19478			  -0.02334			 -0.21816
	41.00			  10.14586			  0.06202			 -0.00940
	41.25			  10.13841			  0.04387			 0.07688
	41.50			  10.17739			  -0.04393			 0.22037
	41.75			  10.13507			  -0.04219			 0.10612
	42.00			  10.14105			  -0.03957			 0.10571
	42.25			  10.20743			  -0.13208			 0.08918
	42.50			  10.36264			  -0.18514			 0.15793
	42.75			  10.34867			  -0.27312			 0.02804
	43.00			  10.17995			  -0.22965			 0.09368
	43.25			  10.21458			  -0.30262			 0.06404
	43.50			  10.14509			  -0.29616			 0.00023
	43.75			  10.32320			  -0.27713			 0.10439
	44.00			  10.31093			  -0.35917			 0.15678
	44.25			  10.35364			  -0.36563			 0.27267
	44.50			  10.50838			  -0.34241			 0.16872
	44.75			  10.67407			  -0.21970			 0.15093
	45.00			  10.54635			  -0.13068			 0.23340
	45.25			  10.53455			  -0.11428			 0.19202
	45.50			  10.58105			  -0.19387			 0.15758
	45.75			  10.57647			  -0.26299			 0.21061
	46.00			  10.60862			  -0.08059			 0.11444
	46.25			  10.55442			  -0.02613			 -0.00353
	46.50			  10.59115			  0.04736			 0.00695
	46.75			  10.63657			  -0.07029			 -0.01644
	47.00			  10.41133			  0.08244			 -0.05734
	47.25			  10.45092			  0.17234			 -0.00022
	47.50			  10.56126			  0.13341			 0.11042
	47.75			  10.55171			  0.31233			 0.05314
	48.00			  10.57733			  0.27550			 0.01300
	48.25			  10.62360			  0.15977			 0.07542
	48.50			  10.54247			  0.16989			 0.13185
	48.75			  10.23298			  0.12905			 0.09765
	49.00			  10.28849			  0.03304			 0.08833
	49.25			  10.35100			  -0.06069			 0.11822
	49.50			  10.38469			  -0.03678			 0.10479
	49.75			  10.30076			  0.13149			 0.03982
	50.00			  10.22715			  0.02781			 0.11132
	50.25			  10.22599			  -0.09647			 0.16626
	50.50			  10.11185			  -0.08617			 0.13182
	50.75			  10.12948			  -0.02403			 0.18632
	51.00			  10.14734			  0.01088			 0.10626
	51.25			  10.18546			  0.02763			 0.07951
	51.50			  10.19385			  -0.07867			 -0.03752
	51.75			  10.16092			  -0.03765			 0.03873
	52.00			  10.27009			  -0.03294			 0.01726
	52.25			  10.31637			  -0.03224			 -0.10043
	52.50			  10.20060			  0.10042			 -0.23103
	52.75			  10.20340			  0.06953			 -0.10145
	53.00			  10.20145			  -0.08460			 -0.00329
	53.25			  10.21621			  -0.03992			 0.01693
	53.50			  10.05347			  -0.01077			 -0.02240
	53.75			  10.18088			  -0.10310			 -0.09970
	54.00			  10.30891			  -0.05859			 0.03616
	54.25			  10.40542			  0.04212			 0.20070
	54.50			  10.33795			  0.04771			 0.09450
	54.75			  10.39129			  0.02118			 0.12759
	55.00			  10.31264			  -0.09019			 0.27099
	55.25			  10.34300			  0.01978			 0.17813
	55.50			  10.26536			  -0.02718			 0.10420
	55.75			  10.32887			  -0.07972			 0.13575
	56.00			  10.30068			  -0.04254			 0.08313
	56.25			  10.40449			  0.06080			 0.01676
	56.50			  10.39494			  0.03112			 0.08026
	56.75			  10.34401			  -0.12283			 -0.02491
	57.00			  10.32988			  -0.06575			 -0.08011
	57.25			  10.40915			  0.09693			 -0.06770
	57.50			  10.53874			  0.00913			 -0.00474
	57.75			  10.50947			  0.03322			 -0.00559
	58.00			  10.53509			  -0.07605			 -0.05530
	58.25			  10.50714			  -0.02805			 -0.09960
	58.50			  10.46575			  0.27951			 -0.10043
	58.75			  10.39401			  0.24704			 -0.01770
	59.00			  10.39945			  0.20358			 -0.09681
	59.25			  10.47158			  0.26275			 -0.01138
	59.50			  10.31683			  0.28283			 -0.08863
	59.75			  10.25852			  0.22330			 -0.07872
	60.00			  10.38663			  0.16867			 -0.22209
	60.25			  10.29168			  0.13463			 -0.17181
	60.50			  10.23236			  0.04299			 -0.10192
	60.75			  10.24688			  0.12364			 -0.18366
	61.00			  10.21100			  0.25071			 -0.04317
	61.25			  10.11915			  0.32245			 -0.14688
	61.50			  10.06876			  0.35177			 -0.10357
	61.75			  10.01131			  0.21685			 0.17352
	62.00			  9.89779			  0.14074			 0.07738
	62.25			  9.95758			  0.14615			 0.10600
	62.50			  9.88281			  0.06551			 0.11875
	62.75			  9.91852			  -0.02840			 -0.01188
	63.00			  10.02614			  -0.03904			 -0.01484
	63.25			  10.05323			  -0.03800			 0.00165
	63.50			  10.12086			  0.11962			 -0.10081
	63.75			  10.07606			  0.02990			 -0.15672
	64.00			  10.12684			  -0.01373			 -0.09941
	64.25			  10.16116			  -0.04062			 -0.14617
	64.50			  10.12583			  -0.14273			 -0.08432
	64.75			  10.07218			  -0.11864			 -0.10530
	65.00			  10.04229			  -0.17048			 -0.00459
	65.25			  10.08313			  -0.13714			 -0.10147
	65.50			  10.10223			  0.03287			 -0.10830
	65.75			  10.11224			  0.25036			 -0.15147
	66.00			  10.25961			  0.02205			 -0.07950
	66.25			  10.20215			  -0.03643			 -0.17751
	66.50			  10.37444			  0.01419			 -0.06126
	66.75			  10.44906			  0.07057			 -0.17900
	67.00			  10.37491			  0.07790			 -0.21043
	67.25			  10.41692			  0.11526			 -0.04501
	67.50			  10.36800			  0.28370			 -0.05996
	67.75			  10.26768			  0.27497			 -0.10535
	68.00			  10.23733			  0.17286			 -0.00538
	68.25			  10.38493			  0.08681			 -0.11684
	68.50			  10.39323			  0.10112			 -0.07739
	68.75			  10.49239			  0.04422			 -0.09773
	69.00			  10.59534			  0.04683			 0.03478
	69.25			  10.38485			  0.18508			 0.14743
	69.50			  10.16861			  0.23273			 0.26242
	69.75			  10.25767			  0.20498			 0.32609
	70.00			  10.26551			  0.07895			 0.30374
	70.25			  10.21217			  0.07511			 0.36417
	70.50			  10.31031			  0.17478			 0.26358
	70.75			  10.38570			  0.11299			 0.17151
	71.00			  10.33555			  0.19974			 0.21479
	71.25			  10.20635			  0.19730			 0.11404
	71.50			  10.13934			  0.09414			 0.13282
	71.75			  10.05556			  0.12887			 0.21860
	72.00			  10.03041			  0.04736			 0.11170
	72.25			  10.04873			  0.01489			 0.11153
	72.50			  9.99772			  0.09326			 0.16673
	72.75			  9.89391			  0.05155			 0.12638
	73.00			  9.92761			  0.07825			 0.00203
	73.25			  9.87069			  0.03723			 -0.00195
	73.50			  9.92279			  -0.05964			 -0.01793
	73.75			  9.97466			  -0.11393			 0.03968
	74.00			  10.01620			  0.07337			 0.08218
	74.25			  10.03724			  -0.04638			 0.02679
	74.50			  9.91588			  -0.09193			 0.14266
	74.75			  9.90346			  -0.06802			 0.30890
	75.00			  10.00983			  -0.07937			 0.22884
	75.25			  10.06232			  0.05120			 0.10262
	75.50			  10.01977			  -0.08617			 0.10884
	75.75			  9.97186			  -0.19143			 0.22726
	76.00			  9.91021			  -0.17240			 0.34038
	76.25			  9.90695			  -0.23506			 0.34532
	76.50			  10.02241			  -0.40735			 0.33915
	76.75			  10.01472			  -0.43318			 0.36734
	77.00			  10.07606			  -0.48223			 0.32527
	77.25			  10.07653			  -0.54350			 0.30772
	77.50			  10.05533			  -0.37715			 0.30847
	77.75			  10.05292			  -0.31222			 0.21623
	78.00			  9.99927			  -0.48781			 0.13256
	78.25			  10.05448			  -0.49654			 0.24305
	78.50			  10.01806			  -0.40019			 0.20060
	78.75			  10.04531			  -0.39844			 0.35864
	79.00			  10.09695			  -0.59569			 0.25568
	79.25			  10.28453			  -0.62728			 0.29693
	79.50			  10.35969			  -0.62204			 0.27146
	79.75			  10.28151			  -0.49724			 0.29738
	80.00			  10.17203			  -0.55414			 0.31904
	80.25			  10.07761			  -0.60581			 0.25710
	80.50			  10.02350			  -0.55257			 0.30232
	80.75			  9.97970			  -0.55589			 0.33215
	81.00			  10.02707			  -0.47210			 0.41880
	81.25			  9.99158			  -0.45203			 0.32761
	81.50			  9.90563			  -0.42986			 0.33293
	81.75			  9.91231			  -0.47263			 0.34627
	82.00			  9.92551			  -0.55013			 0.25897
	82.25			  9.91278			  -0.55519			 0.21335
	82.50			  9.88785			  -0.47717			 0.15850
	82.75			  9.89010			  -0.55641			 0.06089
	83.00			  9.84569			  -0.44173			 0.01894
	83.25			  9.94709			  -0.45552			 0.12376
	83.50			  9.86875			  -0.45413			 0.16801
	83.75			  9.98786			  -0.36493			 0.20559
	84.00			  10.13732			  -0.41520			 0.14571
	84.25			  10.08289			  -0.40787			 0.11425
	84.50			  10.06294			  -0.49445			 0.10779
	84.75			  10.01006			  -0.52412			 0.06707
	85.00			  10.04050			  -0.38256			 -0.01467
	85.25			  9.96689			  -0.35149			 -0.08120
	85.50			  10.03010			  -0.27015			 -0.04021
	85.75			  10.10479			  -0.24798			 -0.04769
	86.00			  10.06977			  -0.11986			 -0.03473
	86.25			  9.97178			  -0.17380			 0.02778
	86.50			  9.86867			  -0.00221			 0.02258
	86.75			  9.96821			  0.03112			 0.06560
	87.00			  9.94461			  -0.01147			 -0.03430
	87.25			  10.06643			  0.13463			 -0.11247
	87.50			  10.09120			  0.21685			 -0.09842
	87.75			  10.04694			  0.17356			 -0.04369
	88.00			  10.15766			  0.08750			 -0.16597
	88.25			  10.17412			  0.11020			 -0.04017
	88.50			  10.04749			  0.18124			 -0.13825
	88.75			  10.04205			  0.11089			 -0.18955
	89.00			  10.16675			  0.00477			 -0.19305
	89.25			  10.29672			  0.08035			 -0.04643
	89.50			  10.24066			  0.01419			 -0.09222
	89.75			  10.19027			  -0.02665			 -0.04076
	90.00			  10.35076			  -0.16420			 -0.04771
	90.25			  10.29649			  -0.28516			 -0.13240
	90.50			  10.19423			  -0.34276			 -0.12257
	90.75			  10.23888			  -0.37244			 -0.08080
	91.00			  10.29424			  -0.36406			 -0.01576
	91.25			  10.33228			  -0.39967			 -0.04501
	91.50			  10.19454			  -0.48659			 -0.01748
	91.75			  10.25053			  -0.23559			 0.04519
	92.00			  10.16853			  -0.28115			 -0.04620
	92.25			  10.11395			  -0.40700			 -0.00211
	92.50			  10.17389			  -0.28272			 0.13322
	92.75			  10.29393			  -0.36353			 0.12906
	93.00			  10.28461			  -0.36563			 0.07428
	93.25			  10.27630			  -0.29773			 -0.10691
	93.50			  10.14912			  -0.20504			 0.04299
	93.75			  10.16822			  -0.39338			 -0.01637
	94.00			  10.17164			  -0.54611			 -0.04440
	94.25			  10.14019			  -0.31344			 0.03185
	94.50			  9.93483			  -0.34887			 0.09261
	94.75			  10.08561			  -0.33229			 0.06435
	95.00			  10.14400			  -0.23245			 -0.09277
	95.25			  10.10533			  -0.36458			 -0.08908
	95.50			  10.01379			  -0.32443			 0.11903
	95.75			  9.94065			  -0.37802			 0.12896
	96.00			  10.08018			  -0.47804			 0.14601
	96.25			  9.95742			  -0.48746			 0.25393
	96.50			  9.99228			  -0.48746			 0.25956
	96.75			  10.07257			  -0.42271			 0.35102
	97.00			  10.05215			  -0.40159			 0.20145
	97.25			  10.00556			  -0.36563			 0.20493
	97.50			  10.03755			  -0.42498			 0.23005
	97.75			  10.13950			  -0.34259			 0.39501
	98.00			  10.18973			  -0.31431			 0.37361
	98.25			  10.10813			  -0.33997			 0.24842
	98.50			  10.09221			  -0.19527			 0.23584
	98.75			  10.18616			  -0.16716			 0.23426
	99.00			  10.27685			  -0.12091			 0.18303
	99.25			  10.24276			  -0.08897			 0.13168
	99.50			  10.27545			  -0.23978			 0.13450
	99.75			  10.23127			  -0.39199			 0.05933
	100.00			  10.12785			  -0.49567			 0.06149
	100.25			  9.98964			  -0.56427			 0.00948
	100.50			  10.02846			  -0.54158			 0.03046
	100.75			  9.94461			  -0.47821			 -0.01484
	101.00			  9.94290			  -0.48502			 0.03294
	101.25			  9.90998			  -0.44505			 0.17458
	101.50			  9.90478			  -0.48956			 0.15999
	101.75			  9.89399			  -0.54245			 0.12700
	102.00			  9.94849			  -0.52429			 -0.01770
	102.25			  9.97753			  -0.51906			 -0.08588
	102.50			  10.03460			  -0.44994			 -0.18165
	102.75			  10.10976			  -0.42480			 -0.19990
	103.00			  10.15526			  -0.34102			 -0.17493
	103.25			  10.18329			  -0.41922			 -0.14298
	103.50			  10.28104			  -0.40228			 0.05049
	103.75			  10.29424			  -0.35463			 -0.02316
	104.00			  10.31210			  -0.35498			 0.05072
	104.25			  10.41428			  -0.37296			 -0.03889
	104.50			  10.44130			  -0.35952			 -0.11076
	104.75			  10.38795			  -0.29825			 -0.08307
	105.00			  10.33919			  -0.33386			 -0.02515
	105.25			  10.38594			  -0.39513			 -0.00003
	105.50			  10.46016			  -0.47804			 -0.16017
	105.75			  10.42414			  -0.36964			 -0.07980
	106.00			  10.42887			  -0.41398			 -0.12122
	106.25			  10.27786			  -0.41014			 -0.02522
	106.50			  10.35092			  -0.32356			 -0.00814
	106.75			  10.16807			  -0.30244			 -0.02035
	107.00			  10.03685			  -0.35236			 -0.04114
	107.25			  9.98056			  -0.52412			 -0.06599
	107.50			  10.04120			  -0.46338			 0.01236
	107.75			  10.04329			  -0.47594			 0.01965
	108.00			  9.89111			  -0.52552			 0.03436
	108.25			  9.79895			  -0.50527			 -0.01223
	108.50			  9.81223			  -0.50091			 0.09263
	108.75			  9.86130			  -0.56322			 0.22406
	109.00			  9.88304			  -0.39199			 0.17362
	109.25			  9.88506			  -0.46687			 0.01229
	109.50			  9.94321			  -0.38745			 -0.10081
	109.75			  9.93584			  -0.33386			 -0.01978
	110.00			  9.89500			  -0.41433			 -0.06410
	110.25			  9.86083			  -0.33264			 0.01809
	110.50			  9.80159			  -0.29843			 0.03493
	110.75			  9.97241			  -0.23088			 -0.04333
	111.00			  9.97932			  -0.22634			 -0.01145
	111.25			  9.98615			  -0.37052			 -0.06907
	111.50			  10.00766			  -0.33246			 -0.23399
	111.75			  9.90191			  -0.18061			 -0.26336
	112.00			  9.89546			  -0.08268			 -0.07865
	112.25			  9.90524			  -0.01810			 -0.00694
	112.50			  9.90268			  -0.10433			 0.05917
	112.75			  9.98475			  -0.22023			 0.02752
	113.00			  9.85206			  -0.22861			 0.03015
	113.25			  9.89989			  -0.15599			 -0.01826
	113.50			  9.94733			  -0.17223			 -0.04934
	113.75			  9.93739			  -0.04480			 -0.09324
	114.00			  9.95890			  0.01716			 0.08826
	114.25			  9.90447			  -0.10660			 0.14273
	114.50			  9.84484			  -0.02910			 -0.02011
	114.75			  9.91720			  0.07197			 0.09904
	115.00			  10.11294			  0.06918			 0.10765
	115.25			  10.13165			  0.03619			 0.06028
	115.50			  10.08507			  -0.00693			 0.03384
	115.75			  9.98390			  -0.00239			 0.00527
	116.00			  9.95618			  0.06569			 0.06636
	116.25			  9.97241			  0.12416			 0.11541
	116.50			  9.87714			  0.11491			 0.21803
	116.75			  9.82380			  0.14511			 0.11638
	117.00			  9.90354			  0.11089			 -0.00310
	117.25			  9.92427			  0.08297			 -0.08657
	117.50			  9.94011			  0.13219			 -0.05010
	117.75			  9.92559			  0.08768			 -0.11079
	118.00			  9.89919			  0.17914			 -0.15194
	118.25			  9.93312			  0.02187			 -0.04513
	118.50			  10.06899			  -0.01478			 0.00844
	118.75			  10.08864			  0.00564			 -0.01417
	119.00			  10.00882			  0.01053			 0.10817
	119.25			  9.88917			  0.01786			 -0.01039
	119.50			  9.84538			  0.07686			 0.01870
	119.75			  9.97807			  0.06167			 0.01901
	120.00			  9.93809			  0.01821			 -0.06819
	120.25			  9.91619			  0.12084			 -0.01176
	120.50			  9.90936			  0.17059			 0.08194
	120.75			  9.86456			  0.25804			 0.15621
	121.00			  9.82745			  0.26293			 0.35698
	121.25			  9.89981			  0.27305			 0.20403
	121.50			  9.93886			  0.17478			 0.10503
	121.75			  9.87426			  0.13655			 0.12664
	122.00			  9.92481			  0.07406			 0.10266
	122.25			  9.95105			  0.05713			 0.02381
	122.50			  10.02008			  0.02310			 0.04486
	122.75			  9.95866			  0.07529			 0.20919
	123.00			  9.88863			  0.04526			 0.20439
	123.25			  9.77915			  0.08698			 0.19793
	123.50			  9.83001			  0.11945			 0.10829
	123.75			  9.85586			  0.04404			 0.00177
	124.00			  9.78389			  0.08663			 -0.20747
	124.25			  9.93389			  0.07755			 -0.06164
	124.50			  9.97210			  0.08785			 -0.05965
	124.75			  9.89437			  -0.03590			 -0.11403
	125.00			  9.81394			  -0.09752			 -0.10090
	125.25			  9.83855			  -0.19265			 -0.15868
	125.50			  9.84957			  -0.20958			 -0.15062
	125.75			  9.72946			  -0.23122			 -0.21407
	126.00			  9.86914			  -0.26648			 -0.05644
	126.25			  9.93009			  -0.33561			 -0.07690
	126.50			  9.80648			  -0.31710			 -0.15054
	126.75			  9.89709			  -0.18183			 -0.04946
	127.00			  9.92528			  -0.20836			 -0.02276
	127.25			  9.90548			  -0.41433			 -0.02787
	127.50			  9.95416			  -0.47455			 -0.05275
	127.75			  9.97652			  -0.36318			 0.00813
	128.00			  9.94655			  -0.54000			 0.05425
	128.25			  10.04058			  -0.49567			 0.04082
	128.50			  10.03196			  -0.55013			 0.00867
	128.75			  9.95804			  -0.40578			 -0.03754
	129.00			  10.00750			  -0.19806			 0.08743
	129.25			  9.90447			  -0.17886			 0.14935
	129.50			  9.98537			  -0.27382			 0.08663
	129.75			  10.02078			  -0.19125			 0.21597
	130.00			  10.04656			  -0.29825			 0.29651
	130.25			  10.03475			  -0.41572			 0.24121
	130.50			  10.01573			  -0.49532			 0.05300
	130.75			  10.02194			  -0.47594			 0.08705
	131.00			  9.95191			  -0.46425			 0.08045
	131.25			  10.02614			  -0.45308			 0.05985
	131.50			  10.07443			  -0.43981			 0.03308
	131.75			  10.09609			  -0.32443			 0.08675
	132.00			  10.05284			  -0.20609			 0.11586
	132.25			  10.11442			  -0.21656			 -0.00592
	132.50			  10.06535			  -0.14674			 0.07435
	132.75			  10.00665			  -0.17973			 0.16855
	133.00			  10.00308			  -0.04009			 0.23508
	133.25			  9.94399			  -0.16524			 0.13923
	133.50			  10.04283			  -0.19335			 0.12078
	133.75			  9.96682			  -0.07273			 0.06536
	134.00			  9.98429			  -0.11951			 0.00919
	134.25			  9.88933			  -0.25549			 -0.00918
	134.50			  9.91332			  -0.17013			 -0.07448
	134.75			  10.00944			  -0.31169			 0.02722
	135.00			  10.02567			  -0.34119			 -0.10712
	135.25			  10.08879			  -0.35184			 -0.15889
	135.50			  10.28314			  -0.36755			 -0.13186
	135.75			  10.30371			  -0.31309			 0.03462
	136.00			  10.24540			  -0.35097			 0.17783
	136.25			  10.18360			  -0.20818			 0.07390
	136.50			  10.32056			  -0.22128			 0.06915
	136.75			  10.26310			  -0.27678			 0.19798
	137.00			  10.31132			  -0.34870			 0.23021
	137.25			  10.31163			  -0.23629			 0.13471
	137.50			  10.29152			  -0.32112			 0.11217
	137.75			  10.28197			  -0.38640			 0.08187
	138.00			  10.24385			  -0.44697			 0.05307
	138.25			  10.20790			  -0.43894			 -0.02571
	138.50			  10.10060			  -0.50701			 -0.09293
	138.75			  10.21364			  -0.41642			 -0.13536
	139.00			  10.13623			  -0.37366			 -0.14068
	139.25			  10.12862			  -0.34468			 -0.10454
	139.50			  10.19703			  -0.20749			 -0.13011
	139.75			  10.17964			  -0.22546			 -0.18273
	140.00			  10.18530			  -0.22791			 -0.10499
	140.25			  10.17211			  -0.08111			 -0.10206
	140.50			  10.21458			  0.03688			 -0.07134
	140.75			  10.18414			  -0.00989			 -0.06573
	141.00			  10.20720			  0.05626			 -0.11538
	141.25			  10.15122			  0.01507			 -0.17777
	141.50			  10.13158			  -0.00832			 -0.10944
	141.75			  10.14905			  0.06027			 0.03708
	142.00			  9.95859			  -0.01234			 -0.04724
	142.25			  10.01674			  0.11875			 -0.02198
	142.50			  10.07606			  0.11177			 -0.13848
	142.75			  10.10937			  -0.00920			 -0.18202
	143.00			  10.11636			  -0.02508			 -0.07396
	143.25			  10.07637			  -0.00431			 -0.00944
	143.50			  10.23593			  0.09379			 -0.11481
	143.75			  10.18134			  0.10286			 -0.07037
	144.00			  10.20495			  0.08681			 -0.08489
	144.25			  10.05114			  0.02170			 -0.19248
	144.50			  10.04166			  0.13428			 -0.15629
	144.75			  10.11279			  0.33013			 -0.12791
	145.00			  10.07699			  0.16797			 -0.15163
	145.25			  10.02350			  0.12294			 -0.23231
	145.50			  9.99974			  0.06499			 -0.28812
	145.75			  10.02140			  0.08750			 -0.34895
	146.00			  10.16108			  0.01838			 -0.22313
	146.25			  10.24517			  0.05556			 -0.22098
	146.50			  10.24548			  0.10496			 -0.18732
	146.75			  10.19066			  0.04596			 -0.07228
	147.00			  10.23725			  0.00547			 -0.06391
	147.25			  10.27172			  0.14964			 -0.13976
	147.50			  10.39013			  0.11229			 -0.10726
	147.75			  10.32056			  0.23308			 0.01813
	148.00			  10.39611			  0.23186			 0.10406
	148.25			  10.42243			  0.20567			 0.00028
	148.50			  10.39688			  0.15279			 0.00278
	148.75			  10.33749			  0.12154			 0.05276
	149.00			  10.36940			  0.00739			 -0.05242
	149.25			  10.48478			  0.14249			 -0.02647
	149.50			  10.50341			  0.09326			 -0.05343
	149.75			  10.42584			  0.06551			 -0.04993
	150.00			  10.39929			  0.02275			 -0.18973
	150.25			  10.32281			  -0.06558			 -0.25395
	150.50			  10.24889			  -0.09001			 -0.17093
	150.75			  10.13918			  0.14877			 -0.10807
	151.00			  10.17273			  0.06987			 -0.01086
	151.25			  10.29517			  -0.12388			 0.04387
	151.50			  10.27747			  -0.09071			 -0.09858
	151.75			  10.09438			  -0.09717			 0.00295
	152.00			  10.04702			  -0.04865			 0.03623
	152.25			  10.09446			  0.08436			 -0.14688
	152.50			  10.29804			  0.17408			 -0.12413
	152.75			  10.29898			  0.17775			 -0.14447
	153.00			  10.36295			  -0.00605			 -0.10854
	153.25			  10.24043			  0.12713			 -0.11847
	153.50			  10.23453			  0.00372			 -0.18699
	153.75			  10.32747			  -0.01810			 -0.20442
	154.00			  10.26489			  -0.00728			 -0.11781
	154.25			  10.13499			  -0.00379			 0.07393
	154.50			  10.18398			  -0.08617			 0.12392
	154.75			  10.15394			  -0.05807			 -0.11329
	155.00			  10.12932			  -0.02822			 -0.04707
	155.25			  10.23593			  -0.03782			 -0.08411
	155.50			  10.27980			  -0.02787			 -0.11552
	155.75			  10.24035			  0.01297			 -0.11221
	156.00			  10.18461			  -0.12999			 -0.07585
	156.25			  10.08615			  -0.22913			 -0.00095
	156.50			  10.10657			  -0.39600			 -0.01578
	156.75			  9.93250			  -0.44191			 -0.03983
	157.00			  9.93475			  -0.41869			 -0.05452
	157.25			  9.91736			  -0.24222			 0.01873
	157.50			  9.99523			  -0.32025			 -0.03749
	157.75			  10.03918			  -0.37889			 -0.04688
	158.00			  10.14602			  -0.37436			 -0.02761
	158.25			  10.27126			  -0.19666			 -0.09988
	158.50			  10.27669			  -0.23367			 -0.12131
	158.75			  10.32421			  -0.37977			 -0.09946
	159.00			  10.31202			  -0.51923			 -0.15601
	159.25			  10.33314			  -0.48205			 -0.18474
	159.50			  10.40768			  -0.40892			 -0.17727
	159.75			  10.40317			  -0.22564			 -0.07342
	160.00			  10.32165			  -0.31187			 -0.17964
	160.25			  10.36024			  -0.31780			 -0.15483
	160.50			  10.35263			  -0.34451			 -0.10551
	160.75			  10.34455			  -0.33159			 -0.14130
	161.00			  10.38741			  -0.38762			 -0.11538
	161.25			  10.45900			  -0.43719			 -0.21911
	161.50			  10.53781			  -0.32112			 -0.17457
	161.75			  10.44300			  -0.21290			 -0.21145
	162.00			  10.40651			  -0.11742			 -0.16459
	162.25			  10.47856			  -0.03835			 -0.22942
	162.50			  10.60543			  0.10758			 -0.19673
	162.75			  10.66219			  0.06045			 -0.16348
	163.00			  10.66204			  0.10601			 -0.05999
	163.25			  10.54122			  0.13760			 -0.01084
	163.50			  10.50621			  0.13638			 -0.12190
	163.75			  10.49852			  -0.04725			 -0.15894
	164.00			  10.51498			  -0.09595			 -0.11556
	164.25			  10.46870			  0.04928			 -0.14406
	164.50			  10.50232			  0.10897			 -0.16679
	164.75			  10.52725			  0.01838			 -0.16518
	165.00			  10.46863			  0.08768			 -0.09078