--------------TurbSim v2.00.* User Time Series Input File-----------------------
     Time series input from low-res turbsim run
--------------------------------------------------------------------------------
          3 nComp - Number of velocity components in the file
          1 nPoints - Number of time series points contained in this file (-)
          1 RefPtID - Index of the reference point (1-nPoints)
     Pointyi Pointzi ! nPoints listed in order of increasing height
       (m)     (m)
       4.62352   94.00000
--------Time Series-------------------------------------------------------------
Elapsed Time         Point01u             Point01v           Point01w
         (s)            (m/s)                (m/s)              (m/s)
	0.00			  10.14057			  -0.49969			 -0.03654
	0.25			  10.00970			  -0.54932			 0.07537
	0.50			  10.00270			  -0.43770			 -0.00526
	0.75			  10.02280			  -0.36401			 -0.10106
	1.00			  9.99254			  -0.36502			 0.04539
	1.25			  10.06799			  -0.31606			 0.07088
	1.50			  10.06421			  -0.37922			 0.08795
	1.75			  10.09860			  -0.39643			 -0.03522
	2.00			  10.00494			  -0.41448			 -0.03472
	2.25			  10.01678			  -0.39576			 0.05977
	2.50			  9.95751			  -0.34998			 -0.00184
	2.75			  9.92171			  -0.34814			 0.06099
	3.00			  9.98091			  -0.24605			 0.03612
	3.25			  9.95016			  -0.15665			 0.01750
	3.50			  10.01636			  -0.19792			 -0.08834
	3.75			  9.98666			  -0.05840			 -0.20325
	4.00			  9.93636			  -0.09165			 -0.26823
	4.25			  10.01580			  -0.10201			 -0.18212
	4.50			  9.96963			  -0.05823			 -0.17775
	4.75			  10.05811			  -0.01679			 -0.28141
	5.00			  10.06820			  -0.04988			 -0.16916
	5.25			  10.10105			  0.02966			 -0.14253
	5.50			  10.13356			  -0.05205			 -0.05831
	5.75			  10.07717			  -0.08246			 -0.08913
	6.00			  10.02918			  -0.13108			 -0.10176
	6.25			  10.12452			  -0.19876			 -0.16183
	6.50			  10.15997			  -0.14662			 -0.08612
	6.75			  10.15528			  -0.13543			 0.03835
	7.00			  10.19087			  -0.09499			 0.00417
	7.25			  10.22078			  -0.02097			 -0.01530
	7.50			  10.27906			  -0.02231			 -0.06072
	7.75			  10.28117			  -0.06592			 0.05242
	8.00			  10.24803			  -0.11805			 0.03223
	8.25			  10.25693			  -0.15698			 0.04364
	8.50			  10.17587			  -0.15515			 0.08353
	8.75			  10.27766			  -0.19274			 0.00222
	9.00			  10.24355			  -0.31338			 -0.01746
	9.25			  10.27836			  -0.41581			 -0.01733
	9.50			  10.31010			  -0.42851			 -0.14819
	9.75			  10.33959			  -0.40880			 -0.18640
	10.00			  10.25405			  -0.38206			 -0.12625
	10.25			  10.22715			  -0.38991			 -0.00312
	10.50			  10.30449			  -0.40194			 -0.02042
	10.75			  10.25651			  -0.39693			 -0.02580
	11.00			  10.29735			  -0.39660			 0.02333
	11.25			  10.26694			  -0.31255			 -0.09795
	11.50			  10.25483			  -0.28799			 -0.09191
	11.75			  10.23584			  -0.25223			 -0.02893
	12.00			  10.29651			  -0.29216			 -0.05604
	12.25			  10.39185			  -0.24738			 -0.07780
	12.50			  10.33609			  -0.31572			 0.01902
	12.75			  10.29293			  -0.31288			 -0.03268
	13.00			  10.24698			  -0.32742			 -0.03425
	13.25			  10.25945			  -0.39275			 -0.05040
	13.50			  10.23129			  -0.41765			 -0.08017
	13.75			  10.27836			  -0.34914			 -0.00291
	14.00			  10.39858			  -0.30486			 0.07296
	14.25			  10.31577			  -0.34680			 0.12079
	14.50			  10.27836			  -0.33193			 0.14941
	14.75			  10.44117			  -0.31756			 0.10200
	15.00			  10.48222			  -0.33126			 0.04867
	15.25			  10.39592			  -0.34279			 0.06593
	15.50			  10.33833			  -0.35883			 0.11070
	15.75			  10.20761			  -0.41331			 0.01019
	16.00			  10.19822			  -0.33177			 -0.02092
	16.25			  10.21202			  -0.33143			 -0.02924
	16.50			  10.17167			  -0.40495			 -0.03491
	16.75			  10.20838			  -0.42083			 0.01052
	17.00			  10.14652			  -0.35766			 -0.04904
	17.25			  10.07787			  -0.24905			 0.01008
	17.50			  10.11535			  -0.24621			 0.09484
	17.75			  9.97363			  -0.23000			 -0.04080
	18.00			  9.98694			  -0.25958			 -0.01186
	18.25			  10.00571			  -0.22282			 -0.03384
	18.50			  10.02869			  -0.18205			 -0.03208
	18.75			  10.02827			  -0.20544			 0.10001
	19.00			  10.08536			  -0.06759			 0.16257
	19.25			  10.11563			  -0.10134			 0.14974
	19.50			  10.07261			  -0.17670			 0.07648
	19.75			  10.06953			  -0.17152			 0.06418
	20.00			  10.19598			  -0.17336			 0.06354
	20.25			  10.18428			  -0.22700			 0.17557
	20.50			  10.23696			  -0.22516			 0.09107
	20.75			  10.13685			  -0.25975			 0.03017
	21.00			  10.01237			  -0.10519			 0.00339
	21.25			  10.02631			  -0.05038			 -0.02823
	21.50			  10.00361			  -0.28565			 -0.00578
	21.75			  10.05545			  -0.35449			 -0.02770
	22.00			  10.11317			  -0.21948			 -0.04793
	22.25			  10.11829			  -0.33043			 0.08352
	22.50			  10.15906			  -0.33711			 0.13888
	22.75			  10.06862			  -0.34563			 0.19431
	23.00			  10.09825			  -0.29584			 0.09578
	23.25			  10.04291			  -0.26409			 0.01474
	23.50			  10.14834			  -0.38774			 -0.03402
	23.75			  10.11226			  -0.39175			 0.15066
	24.00			  10.15240			  -0.33728			 0.11972
	24.25			  10.14617			  -0.22566			 0.09593
	24.50			  10.12866			  -0.26610			 0.02154
	24.75			  10.05972			  -0.36134			 0.04797
	25.00			  10.11451			  -0.33210			 0.10454
	25.25			  10.17608			  -0.19608			 0.05501
	25.50			  10.19528			  -0.16801			 -0.01633
	25.75			  10.14022			  -0.20143			 -0.05728
	26.00			  10.11703			  -0.25841			 -0.07496
	26.25			  10.05321			  -0.26493			 0.06437
	26.50			  10.05734			  -0.19207			 0.08664
	26.75			  10.11710			  -0.12607			 0.03656
	27.00			  10.08193			  -0.22533			 0.10334
	27.25			  9.98315			  -0.13175			 0.06262
	27.50			  9.95149			  -0.14028			 0.01107
	27.75			  9.91793			  -0.18973			 -0.00918
	28.00			  9.94441			  -0.20578			 -0.03248
	28.25			  9.92501			  -0.20979			 -0.07821
	28.50			  9.96816			  -0.09232			 -0.18787
	28.75			  9.99212			  -0.01980			 -0.15610
	29.00			  9.87240			  -0.01863			 -0.12899
	29.25			  9.87660			  -0.03150			 -0.14693
	29.50			  9.86161			  -0.09833			 -0.18335
	29.75			  9.86658			  -0.02364			 -0.16813
	30.00			  9.82434			  0.04604			 -0.21086
	30.25			  9.86007			  0.13192			 -0.23187
	30.50			  9.88557			  0.17403			 -0.15606
	30.75			  9.90217			  0.17486			 -0.13004
	31.00			  9.96886			  0.14880			 -0.26992
	31.25			  9.95443			  0.10368			 -0.39643
	31.50			  9.93075			  0.13042			 -0.36173
	31.75			  9.92354			  -0.00075			 -0.23935
	32.00			  9.81425			  0.05205			 -0.23348
	32.25			  9.77397			  0.09900			 -0.18313
	32.50			  9.78027			  0.06826			 -0.02100
	32.75			  9.79218			  0.06391			 -0.05472
	33.00			  9.87198			  0.14546			 -0.07180
	33.25			  9.88431			  0.06258			 -0.14187
	33.50			  9.95527			  -0.00944			 -0.11941
	33.75			  9.89720			  0.03785			 -0.06329
	34.00			  9.89692			  0.00493			 -0.06288
	34.25			  9.95345			  0.10736			 0.00009
	34.50			  10.02098			  -0.03902			 0.02277
	34.75			  10.00466			  -0.01328			 -0.03316
	35.00			  10.01587			  0.01211			 -0.02897
	35.25			  10.02876			  -0.03567			 -0.08744
	35.50			  9.93495			  -0.00810			 -0.13274
	35.75			  9.87961			  -0.06258			 -0.02858
	36.00			  9.89839			  -0.07778			 -0.08970
	36.25			  10.02862			  -0.06826			 -0.07617
	36.50			  10.04396			  -0.03400			 -0.05705
	36.75			  9.97951			  0.00142			 -0.09343
	37.00			  9.89755			  -0.03116			 -0.06641
	37.25			  9.93460			  -0.21563			 -0.03497
	37.50			  9.96683			  -0.19074			 0.00765
	37.75			  9.93117			  -0.11722			 0.03081
	38.00			  9.90350			  -0.05522			 -0.01762
	38.25			  9.89902			  0.05639			 -0.05576
	38.50			  9.93797			  0.06191			 -0.14794
	38.75			  9.91205			  0.14078			 -0.12217
	39.00			  9.95023			  0.19592			 -0.05454
	39.25			  9.97440			  0.11304			 -0.03651
	39.50			  9.89516			  -0.09148			 -0.09656
	39.75			  9.89278			  -0.04470			 -0.09325
	40.00			  9.91464			  0.04353			 -0.06970
	40.25			  9.87737			  0.05038			 -0.09718
	40.50			  9.93124			  -0.11321			 -0.10717
	40.75			  9.86434			  -0.04887			 -0.00296
	41.00			  9.88248			  -0.09315			 -0.07498
	41.25			  9.88445			  -0.08279			 0.02467
	41.50			  9.86980			  -0.07845			 0.09308
	41.75			  9.85103			  -0.15882			 0.12969
	42.00			  9.83071			  -0.25123			 0.03174
	42.25			  9.75589			  -0.28481			 -0.08074
	42.50			  9.78455			  -0.33177			 -0.09593
	42.75			  9.86000			  -0.35599			 -0.02904
	43.00			  9.89271			  -0.37471			 -0.04751
	43.25			  9.77915			  -0.34847			 -0.01538
	43.50			  9.82721			  -0.28013			 0.00188
	43.75			  9.91555			  -0.17286			 0.06428
	44.00			  9.87036			  -0.14629			 0.13770
	44.25			  9.86343			  -0.12758			 0.07401
	44.50			  9.84374			  -0.23318			 0.08814
	44.75			  9.92543			  -0.30971			 0.16482
	45.00			  10.05895			  -0.33360			 0.07143
	45.25			  10.09293			  -0.25240			 0.02168
	45.50			  10.04529			  -0.31957			 -0.00405
	45.75			  10.00529			  -0.28431			 0.08478
	46.00			  10.00928			  -0.29684			 0.15379
	46.25			  10.08025			  -0.28698			 0.18560
	46.50			  9.97769			  -0.22934			 0.07662
	46.75			  9.91954			  -0.29233			 0.00994
	47.00			  9.99065			  -0.20377			 -0.03610
	47.25			  9.96704			  -0.15231			 0.04263
	47.50			  9.99779			  -0.16400			 0.01567
	47.75			  9.93804			  -0.23869			 -0.11274
	48.00			  9.96137			  -0.14696			 -0.04173
	48.25			  9.97622			  -0.14863			 -0.10027
	48.50			  9.94953			  -0.22566			 -0.05726
	48.75			  9.93068			  -0.15749			 0.04614
	49.00			  9.88381			  -0.00877			 -0.06641
	49.25			  9.87029			  -0.04486			 -0.03124
	49.50			  9.83099			  -0.15114			 -0.07432
	49.75			  9.84690			  -0.23435			 -0.07189
	50.00			  9.89607			  -0.09483			 -0.15248
	50.25			  9.90497			  0.02097			 -0.34070
	50.50			  9.92991			  0.04837			 -0.37272
	50.75			  9.84339			  0.09466			 -0.23337
	51.00			  9.77992			  0.02816			 -0.06645
	51.25			  9.71814			  -0.08731			 -0.09131
	51.50			  9.81705			  -0.07243			 -0.05122
	51.75			  9.85523			  -0.15080			 -0.01326
	52.00			  9.98588			  -0.17804			 -0.05878
	52.25			  10.06245			  -0.18673			 -0.08285
	52.50			  10.03576			  -0.17871			 -0.11486
	52.75			  10.02925			  -0.17453			 -0.07329
	53.00			  9.98462			  -0.14429			 -0.01068
	53.25			  9.99737			  -0.13092			 -0.03025
	53.50			  9.98441			  -0.12891			 0.05133
	53.75			  9.96340			  -0.08664			 0.01468
	54.00			  9.97965			  -0.13794			 -0.08270
	54.25			  10.04396			  -0.11488			 -0.14664
	54.50			  10.08648			  -0.14429			 -0.07792
	54.75			  10.22904			  -0.10736			 -0.05071
	55.00			  10.14554			  -0.11070			 0.03660
	55.25			  10.08557			  -0.15515			 0.01482
	55.50			  10.19507			  -0.08647			 0.02356
	55.75			  10.19360			  -0.05105			 0.06639
	56.00			  10.19037			  -0.04303			 0.12159
	56.25			  10.30547			  -0.05322			 0.07055
	56.50			  10.30709			  -0.05489			 0.03493
	56.75			  10.18134			  -0.00760			 -0.03060
	57.00			  10.11198			  -0.01261			 -0.05804
	57.25			  10.07065			  -0.04186			 0.00162
	57.50			  10.10288			  -0.02130			 0.01670
	57.75			  10.10841			  0.02649			 0.03163
	58.00			  10.21587			  0.00075			 0.09714
	58.25			  10.12662			  -0.09700			 0.00285
	58.50			  10.02203			  0.00326			 -0.00769
	58.75			  9.97923			  0.00894			 0.05850
	59.00			  10.01166			  0.02481			 0.07920
	59.25			  10.11801			  0.20361			 0.15276
	59.50			  10.04473			  0.28181			 0.10511
	59.75			  10.01447			  0.19926			 0.11791
	60.00			  9.97559			  0.14412			 0.07947
	60.25			  10.10330			  0.13610			 -0.02308
	60.50			  10.13594			  0.15097			 0.06000
	60.75			  10.11724			  0.22282			 0.02164
	61.00			  10.18267			  0.22031			 -0.03497
	61.25			  10.15248			  0.16300			 0.00337
	61.50			  10.17342			  0.11037			 0.07574
	61.75			  10.23087			  0.13543			 0.14562
	62.00			  10.27997			  0.04821			 0.21648
	62.25			  10.36019			  -0.05489			 0.16893
	62.50			  10.41896			  -0.00125			 0.07866
	62.75			  10.44825			  0.01629			 0.06871
	63.00			  10.37574			  0.08296			 0.08592
	63.25			  10.30898			  0.07845			 0.07848
	63.50			  10.38366			  -0.00276			 0.00465
	63.75			  10.36817			  0.09082			 0.03969
	64.00			  10.23724			  0.13493			 0.09292
	64.25			  10.20999			  0.19208			 0.05848
	64.50			  10.28320			  0.15030			 -0.03983
	64.75			  10.32782			  0.03350			 -0.02042
	65.00			  10.39367			  0.07344			 0.01429
	65.25			  10.30190			  0.26510			 -0.05895
	65.50			  10.30022			  0.20394			 -0.14409
	65.75			  10.24165			  0.14696			 -0.02939
	66.00			  10.12053			  0.05506			 0.01488
	66.25			  10.11121			  0.07060			 -0.11185
	66.50			  10.16971			  0.04988			 -0.20847
	66.75			  10.18575			  -0.04269			 -0.19300
	67.00			  10.17847			  -0.04052			 -0.16980
	67.25			  10.17223			  -0.18339			 -0.18072
	67.50			  10.13699			  -0.19642			 -0.17678
	67.75			  10.09986			  -0.06776			 -0.16358
	68.00			  10.08634			  -0.14094			 -0.13010
	68.25			  10.03632			  -0.08497			 -0.00866
	68.50			  10.04382			  -0.17587			 0.04920
	68.75			  10.09160			  -0.15531			 0.03394
	69.00			  10.18260			  -0.19141			 -0.03765
	69.25			  10.27808			  -0.26610			 -0.04690
	69.50			  10.29707			  -0.25407			 -0.11727
	69.75			  10.20705			  -0.22566			 -0.24192
	70.00			  10.24158			  -0.12006			 -0.08721
	70.25			  10.31738			  -0.02665			 -0.07621
	70.50			  10.25118			  -0.01479			 -0.11531
	70.75			  10.25770			  -0.00760			 -0.11906
	71.00			  10.20376			  0.13493			 -0.20455
	71.25			  10.20109			  0.17988			 -0.11550
	71.50			  10.06834			  0.19558			 0.04941
	71.75			  9.97797			  0.13760			 -0.05141
	72.00			  9.99128			  0.22800			 -0.00654
	72.25			  10.06841			  0.23151			 -0.03888
	72.50			  10.08866			  0.14696			 0.03573
	72.75			  10.17272			  0.21396			 -0.06929
	73.00			  10.18995			  0.25173			 0.08872
	73.25			  10.18652			  0.18589			 0.08843
	73.50			  10.17762			  0.21096			 -0.02152
	73.75			  10.26253			  0.14479			 0.05374
	74.00			  10.25419			  0.10602			 0.01639
	74.25			  10.22799			  0.18372			 0.04236
	74.50			  10.19472			  0.16033			 0.01905
	74.75			  10.16887			  0.11271			 0.07442
	75.00			  10.20270			  0.12891			 0.08987
	75.25			  10.29504			  0.14379			 0.11929
	75.50			  10.33203			  0.13409			 0.13597
	75.75			  10.35858			  0.19074			 0.08987
	76.00			  10.34821			  0.07578			 0.01149
	76.25			  10.28264			  0.13978			 -0.06451
	76.50			  10.29546			  0.14663			 -0.03120
	76.75			  10.33686			  0.33578			 0.05532
	77.00			  10.29371			  0.28114			 -0.10818
	77.25			  10.15731			  0.21814			 -0.05281
	77.50			  10.15955			  0.23301			 -0.02490
	77.75			  10.15913			  0.13627			 0.01381
	78.00			  10.10274			  0.16501			 -0.02160
	78.25			  10.10666			  0.12574			 -0.09415
	78.50			  9.98126			  0.01161			 -0.00949
	78.75			  9.99807			  0.01061			 -0.01462
	79.00			  9.98820			  -0.04470			 -0.05487
	79.25			  10.00592			  -0.05573			 -0.15396
	79.50			  10.08466			  -0.09065			 -0.11362
	79.75			  10.05083			  -0.14947			 -0.14693
	80.00			  9.99723			  0.02214			 -0.19318
	80.25			  9.94770			  -0.08246			 -0.22159
	80.50			  9.88711			  -0.05556			 -0.06124
	80.75			  9.90350			  -0.01846			 -0.12654
	81.00			  9.95408			  -0.11404			 -0.10645
	81.25			  9.98750			  -0.09600			 -0.07236
	81.50			  10.03808			  -0.09583			 -0.05580
	81.75			  9.91520			  -0.04537			 -0.02146
	82.00			  9.92326			  -0.07411			 0.04175
	82.25			  9.84809			  -0.00058			 -0.01173
	82.50			  9.92333			  0.00677			 -0.01851
	82.75			  9.90504			  0.00326			 -0.09094
	83.00			  9.97811			  -0.04887			 -0.15509
	83.25			  9.94532			  -0.06107			 -0.27132
	83.50			  9.85159			  0.10335			 -0.26971
	83.75			  9.98350			  -0.02114			 -0.22958
	84.00			  10.02301			  -0.01646			 -0.13076
	84.25			  9.98455			  0.02765			 -0.18902
	84.50			  9.99709			  0.01613			 -0.14415
	84.75			  10.07177			  0.13276			 -0.11873
	85.00			  10.11149			  0.04069			 -0.08979
	85.25			  10.09993			  0.00109			 -0.13948
	85.50			  9.98231			  0.01579			 -0.10103
	85.75			  10.00837			  -0.05472			 -0.09949
	86.00			  9.97166			  0.01379			 -0.09945
	86.25			  9.98175			  0.02665			 -0.02815
	86.50			  10.02512			  0.06943			 -0.00413
	86.75			  10.03660			  0.08998			 -0.06165
	87.00			  9.99646			  0.09048			 -0.13453
	87.25			  9.98525			  0.03801			 -0.05378
	87.50			  10.02883			  0.08814			 -0.07594
	87.75			  10.07633			  0.04954			 -0.17715
	88.00			  10.00263			  -0.01429			 -0.25552
	88.25			  9.97145			  0.14729			 -0.25057
	88.50			  9.93573			  0.13259			 -0.19553
	88.75			  9.94133			  0.11103			 -0.10198
	89.00			  9.88220			  0.13727			 -0.02638
	89.25			  9.93313			  0.14312			 0.12926
	89.50			  9.88669			  0.07093			 0.10169
	89.75			  9.89026			  0.05305			 0.05545
	90.00			  9.85138			  0.07895			 0.05598
	90.25			  9.84381			  0.12507			 0.00844
	90.50			  9.84304			  0.19759			 0.07366
	90.75			  9.79281			  0.16801			 0.15142
	91.00			  9.78462			  0.11571			 0.09539
	91.25			  9.80276			  0.10569			 0.08606
	91.50			  9.82707			  0.15064			 0.11537
	91.75			  9.79155			  0.10970			 0.09924
	92.00			  9.85782			  0.01830			 0.08828
	92.25			  9.93993			  -0.08346			 0.04117
	92.50			  9.80451			  -0.16500			 0.05524
	92.75			  9.72913			  -0.07945			 0.21969
	93.00			  9.75898			  -0.03100			 0.19565
	93.25			  9.71743			  0.10469			 0.17213
	93.50			  9.73313			  0.02782			 0.17388
	93.75			  9.73418			  0.08330			 0.05262
	94.00			  9.69712			  0.17303			 0.00945
	94.25			  9.69579			  0.19441			 -0.01643
	94.50			  9.77817			  0.13109			 0.01694
	94.75			  9.68731			  0.14111			 -0.03831
	95.00			  9.66678			  0.17453			 -0.04801
	95.25			  9.69824			  0.18289			 0.04463
	95.50			  9.75702			  0.22616			 0.04412
	95.75			  9.78798			  0.12290			 0.02179
	96.00			  9.79316			  0.09967			 -0.04861
	96.25			  9.87485			  0.04269			 -0.00384
	96.50			  9.81719			  0.16049			 -0.03089
	96.75			  9.88648			  0.14997			 -0.07219
	97.00			  10.00354			  0.05706			 -0.14009
	97.25			  10.03752			  -0.01395			 -0.07998
	97.50			  9.96795			  -0.02281			 0.03550
	97.75			  9.95135			  0.02331			 -0.09947
	98.00			  9.99604			  0.07294			 -0.11403
	98.25			  9.91051			  0.05639			 -0.04747
	98.50			  9.91800			  0.03150			 -0.10027
	98.75			  10.07969			  0.03016			 -0.11127
	99.00			  10.10098			  0.08764			 -0.00565
	99.25			  10.07149			  0.13777			 0.00782
	99.50			  10.05748			  0.08129			 0.07718
	99.75			  10.09069			  0.05606			 0.15771
	100.00			  10.05237			  -0.00409			 0.14510
	100.25			  10.02357			  -0.14846			 0.03180
	100.50			  9.96277			  -0.25774			 -0.06158
	100.75			  9.96858			  -0.19842			 0.03684
	101.00			  10.09909			  -0.22499			 -0.03293
	101.25			  10.04144			  -0.11956			 0.01493
	101.50			  10.01986			  -0.15615			 0.03281
	101.75			  9.93075			  -0.10318			 0.15571
	102.00			  9.93566			  -0.08313			 0.09350
	102.25			  9.97229			  -0.04938			 0.01350
	102.50			  10.05027			  -0.10519			 0.01111
	102.75			  10.12950			  -0.04704			 -0.05128
	103.00			  10.04613			  -0.05940			 -0.00986
	103.25			  10.10925			  -0.17887			 0.05981
	103.50			  10.03254			  -0.14512			 0.02681
	103.75			  9.84087			  -0.19207			 -0.03075
	104.00			  9.77075			  -0.17787			 -0.01291
	104.25			  9.69852			  -0.25507			 -0.06181
	104.50			  9.79386			  -0.33227			 -0.07903
	104.75			  9.90518			  -0.18389			 0.00837
	105.00			  9.79520			  -0.17687			 0.07446
	105.25			  9.83078			  -0.20026			 -0.02595
	105.50			  9.82847			  -0.21563			 0.04478
	105.75			  9.83884			  -0.30085			 0.06929
	106.00			  9.74132			  -0.27027			 0.03905
	106.25			  9.67869			  -0.18255			 0.01398
	106.50			  9.70896			  -0.15381			 0.01826
	106.75			  9.84346			  -0.16166			 0.05938
	107.00			  9.83996			  -0.20828			 0.07636
	107.25			  9.78693			  -0.21413			 0.09690
	107.50			  9.80017			  -0.26259			 0.20820
	107.75			  9.80269			  -0.15481			 0.24281
	108.00			  9.68997			  -0.06157			 0.18441
	108.25			  9.72395			  -0.05305			 0.17532
	108.50			  9.79162			  -0.13810			 0.10726
	108.75			  9.80241			  -0.15765			 0.09966
	109.00			  9.85411			  -0.13042			 0.00096
	109.25			  9.85642			  -0.18572			 -0.03155
	109.50			  9.84907			  -0.10552			 -0.03515
	109.75			  9.79043			  -0.02765			 -0.05065
	110.00			  9.66006			  -0.10803			 -0.04072
	110.25			  9.76374			  -0.10201			 -0.05821
	110.50			  9.72318			  -0.10017			 0.03544
	110.75			  9.80514			  -0.05506			 -0.01587
	111.00			  9.81775			  -0.09249			 -0.02700
	111.25			  9.72857			  -0.05355			 -0.15684
	111.50			  9.75968			  -0.06675			 -0.20134
	111.75			  9.82770			  -0.17821			 -0.05178
	112.00			  9.79155			  -0.24989			 -0.07996
	112.25			  9.72395			  -0.09566			 -0.18004
	112.50			  9.70980			  0.00376			 -0.19528
	112.75			  9.71463			  -0.01512			 -0.23205
	113.00			  9.75274			  0.02983			 -0.11294
	113.25			  9.84697			  0.05606			 -0.10279
	113.50			  9.83618			  -0.09700			 -0.22822
	113.75			  9.96256			  -0.05606			 -0.08579
	114.00			  9.94259			  -0.12072			 -0.10120
	114.25			  10.04970			  -0.03166			 -0.01260
	114.50			  10.10575			  -0.09382			 0.00364
	114.75			  10.11149			  -0.13359			 -0.01937
	115.00			  10.07023			  -0.21647			 -0.07281
	115.25			  10.04333			  -0.17620			 -0.09494
	115.50			  9.97545			  -0.10268			 -0.13637
	115.75			  10.03268			  -0.16450			 -0.16735
	116.00			  9.94098			  -0.13593			 -0.04088
	116.25			  9.91100			  -0.05940			 -0.12425
	116.50			  9.91905			  -0.09900			 -0.21082
	116.75			  9.98918			  -0.01713			 -0.17388
	117.00			  10.02455			  0.03684			 -0.10413
	117.25			  9.90665			  -0.00142			 -0.09065
	117.50			  9.93573			  -0.02531			 -0.05563
	117.75			  9.91646			  0.00226			 -0.03649
	118.00			  9.88886			  0.08397			 -0.05884
	118.25			  9.83604			  0.06341			 -0.06043
	118.50			  9.98406			  -0.03868			 0.04379
	118.75			  9.99366			  0.05589			 0.02792
	119.00			  10.06519			  0.12858			 -0.02910
	119.25			  10.01475			  0.04687			 0.01771
	119.50			  10.05993			  0.01278			 -0.07588
	119.75			  9.88669			  -0.03049			 -0.13548
	120.00			  9.87219			  -0.08914			 -0.00162
	120.25			  9.88381			  0.03501			 -0.04908
	120.50			  9.89313			  0.10886			 -0.06919
	120.75			  9.94525			  0.09934			 -0.06025
	121.00			  9.94294			  0.03969			 -0.06834
	121.25			  9.88921			  -0.08330			 -0.08709
	121.50			  9.91828			  -0.09950			 -0.00465
	121.75			  9.83120			  -0.08781			 0.04784
	122.00			  9.85082			  0.02331			 0.00868
	122.25			  9.74959			  0.05773			 -0.00174
	122.50			  9.70798			  0.06191			 -0.03200
	122.75			  9.80367			  0.06107			 -0.02720
	123.00			  9.80605			  0.04436			 0.00232
	123.25			  9.79898			  0.06525			 0.03960
	123.50			  9.78798			  -0.02030			 -0.00819
	123.75			  9.70861			  -0.17035			 -0.02314
	124.00			  9.81719			  -0.14545			 -0.03188
	124.25			  9.87632			  -0.20477			 0.00450
	124.50			  9.86700			  -0.26727			 0.02873
	124.75			  9.86588			  -0.31907			 0.04688
	125.00			  9.80675			  -0.45374			 -0.04737
	125.25			  9.80942			  -0.49218			 -0.10895
	125.50			  9.81978			  -0.52242			 -0.10464
	125.75			  9.74980			  -0.55116			 -0.03311
	126.00			  9.79029			  -0.63153			 -0.00835
	126.25			  9.81586			  -0.49752			 -0.15019
	126.50			  9.88557			  -0.34914			 -0.09566
	126.75			  9.93467			  -0.37638			 -0.01109
	127.00			  9.90476			  -0.42567			 0.07458
	127.25			  9.91492			  -0.35466			 0.09199
	127.50			  9.97503			  -0.36886			 0.09566
	127.75			  9.96746			  -0.31272			 -0.07104
	128.00			  9.94350			  -0.42467			 -0.10404
	128.25			  9.93979			  -0.34998			 -0.11405
	128.50			  9.93082			  -0.15832			 -0.22307
	128.75			  9.85761			  -0.22132			 -0.06597
	129.00			  9.82987			  -0.25440			 -0.00267
	129.25			  9.81152			  -0.28464			 -0.04787
	129.50			  9.84844			  -0.21597			 -0.17948
	129.75			  9.86896			  -0.21380			 -0.14976
	130.00			  9.81173			  -0.16484			 -0.14246
	130.25			  9.72675			  -0.02164			 -0.11066
	130.50			  9.73964			  -0.05539			 -0.02226
	130.75			  9.79323			  -0.11170			 -0.02615
	131.00			  9.85460			  -0.00944			 -0.15686
	131.25			  9.95191			  -0.07594			 -0.22814
	131.50			  9.91870			  -0.03166			 -0.29826
	131.75			  9.97916			  -0.11571			 -0.12823
	132.00			  9.95548			  -0.07210			 -0.08414
	132.25			  9.93762			  -0.04420			 -0.15713
	132.50			  9.87863			  -0.03150			 -0.13620
	132.75			  9.82637			  0.11688			 -0.08456
	133.00			  9.78728			  0.20160			 -0.00491
	133.25			  9.75239			  0.14479			 -0.06467
	133.50			  9.77607			  0.02364			 -0.04799
	133.75			  9.75148			  0.10385			 -0.04426
	134.00			  9.86882			  0.09098			 -0.11727
	134.25			  9.98112			  0.03885			 -0.03763
	134.50			  9.87527			  0.03918			 0.02094
	134.75			  9.99499			  0.05990			 0.02090
	135.00			  9.91485			  0.09817			 0.05547
	135.25			  9.91107			  0.02732			 0.09683
	135.50			  9.97229			  -0.12891			 0.17536
	135.75			  9.99359			  -0.18506			 -0.01639
	136.00			  9.90084			  -0.09967			 0.06303
	136.25			  9.92886			  -0.14061			 0.08377
	136.50			  9.97363			  -0.22115			 0.05442
	136.75			  9.92935			  -0.28782			 0.05536
	137.00			  9.91324			  -0.34881			 0.00471
	137.25			  9.93432			  -0.25156			 0.01031
	137.50			  9.83800			  -0.17286			 0.12747
	137.75			  9.98687			  -0.14629			 0.09900
	138.00			  10.01124			  -0.13459			 0.11762
	138.25			  10.03794			  -0.08831			 0.17880
	138.50			  9.96809			  -0.05606			 0.11381
	138.75			  9.89663			  -0.11638			 0.03540
	139.00			  9.90861			  -0.06558			 0.11925
	139.25			  9.90525			  0.08714			 0.06972
	139.50			  9.92767			  0.16350			 0.07701
	139.75			  9.95429			  0.13025			 0.09673
	140.00			  10.02582			  0.16484			 0.06204
	140.25			  10.06575			  0.20210			 0.08721
	140.50			  10.07555			  0.31238			 0.00452
	140.75			  9.94294			  0.21029			 -0.03561
	141.00			  9.81649			  0.22867			 0.03689
	141.25			  9.83295			  0.21296			 0.00592
	141.50			  10.02322			  0.07277			 -0.03404
	141.75			  10.02245			  0.13409			 -0.00228
	142.00			  10.10610			  0.00092			 -0.02273
	142.25			  10.04613			  0.02933			 -0.07889
	142.50			  10.01657			  -0.01195			 -0.02488
	142.75			  9.90245			  -0.05004			 -0.08975
	143.00			  9.91009			  -0.08914			 -0.11690
	143.25			  9.95303			  -0.03100			 -0.17316
	143.50			  9.96382			  -0.00610			 -0.19833
	143.75			  9.93306			  0.04687			 -0.05841
	144.00			  9.96333			  0.05439			 -0.10240
	144.25			  10.01643			  -0.01813			 -0.11817
	144.50			  10.00221			  -0.05439			 -0.05407
	144.75			  9.90175			  -0.05355			 0.02885
	145.00			  9.98133			  -0.24170			 -0.00942
	145.25			  9.98196			  -0.27061			 -0.07339
	145.50			  10.00648			  -0.16099			 -0.01859
	145.75			  10.07016			  -0.14061			 0.01346
	146.00			  10.02554			  -0.18038			 -0.01618
	146.25			  10.09013			  -0.05706			 0.01696
	146.50			  9.98091			  -0.01328			 0.04199
	146.75			  10.03198			  0.02448			 0.09992
	147.00			  10.05811			  -0.04136			 0.10866
	147.25			  10.15219			  -0.12657			 0.12714
	147.50			  10.19598			  -0.07327			 -0.03307
	147.75			  10.17496			  0.03684			 -0.09696
	148.00			  10.06666			  0.13510			 -0.16836
	148.25			  10.04025			  0.26209			 -0.22336
	148.50			  10.01440			  0.13861			 -0.19532
	148.75			  10.03625			  0.20812			 -0.24656
	149.00			  10.00459			  0.22733			 -0.21706
	149.25			  10.01412			  0.20628			 -0.22833
	149.50			  10.04991			  0.12190			 -0.17060
	149.75			  10.07324			  0.10552			 -0.21529
	150.00			  10.10652			  0.14495			 -0.17886
	150.25			  10.15948			  0.10803			 -0.18704
	150.50			  10.10708			  0.12825			 -0.27540
	150.75			  10.05741			  0.01362			 -0.26724
	151.00			  10.07920			  0.07143			 -0.20177
	151.25			  10.19241			  0.12674			 -0.20346
	151.50			  10.21048			  0.09433			 -0.25801
	151.75			  10.17840			  0.00075			 -0.35739
	152.00			  10.15913			  -0.02331			 -0.35292
	152.25			  10.30211			  0.05272			 -0.33265
	152.50			  10.14316			  0.18623			 -0.23447
	152.75			  10.14176			  0.16835			 -0.24810
	153.00			  10.17216			  0.19107			 -0.18723
	153.25			  10.11857			  0.06709			 -0.19664
	153.50			  10.04648			  0.04236			 -0.33205
	153.75			  10.08823			  -0.03233			 -0.30080
	154.00			  10.04550			  -0.07878			 -0.24332
	154.25			  9.94343			  -0.09349			 -0.25368
	154.50			  9.86609			  -0.17837			 -0.18152
	154.75			  9.92017			  -0.15932			 -0.17338
	155.00			  9.95940			  -0.19090			 -0.14434
	155.25			  9.89481			  -0.16384			 -0.10104
	155.50			  9.82756			  -0.15648			 -0.08573
	155.75			  9.85474			  -0.11922			 -0.02539
	156.00			  9.80059			  -0.19943			 0.03907
	156.25			  9.70581			  -0.17603			 0.00813
	156.50			  9.65838			  -0.13810			 0.02247
	156.75			  9.68920			  -0.12891			 0.04478
	157.00			  9.77096			  -0.12256			 -0.03787
	157.25			  9.68745			  -0.16517			 -0.11760
	157.50			  9.78693			  -0.24722			 -0.14269
	157.75			  9.84234			  -0.24855			 -0.03206
	158.00			  9.77481			  -0.19893			 -0.04391
	158.25			  9.73460			  -0.20778			 -0.12584
	158.50			  9.79646			  -0.14646			 -0.15361
	158.75			  9.80129			  -0.22566			 -0.10755
	159.00			  9.89110			  -0.13727			 -0.05779
	159.25			  9.96242			  -0.26994			 -0.07646
	159.50			  9.94834			  -0.26910			 0.02115
	159.75			  9.94827			  -0.31940			 0.00067
	160.00			  9.96123			  -0.29835			 0.02203
	160.25			  10.00760			  -0.38640			 0.09562
	160.50			  9.99912			  -0.34680			 0.13709
	160.75			  9.96003			  -0.43486			 0.05021
	161.00			  10.01769			  -0.36585			 0.16370
	161.25			  10.13636			  -0.23953			 0.10932
	161.50			  10.12922			  -0.17603			 0.09315
	161.75			  10.08200			  -0.28682			 0.20000
	162.00			  10.03787			  -0.26409			 0.13155
	162.25			  10.06323			  -0.25557			 0.12932
	162.50			  9.97306			  -0.25808			 0.04916
	162.75			  9.92396			  -0.25507			 0.09069
	163.00			  9.96592			  -0.49802			 0.22283
	163.25			  10.02995			  -0.43988			 0.30078
	163.50			  9.95380			  -0.28648			 0.25950
	163.75			  10.05895			  -0.25273			 0.21693
	164.00			  9.97215			  -0.24805			 0.17264
	164.25			  9.90406			  -0.09533			 0.11502
	164.50			  9.86630			  -0.02582			 0.09234
	164.75			  9.98764			  -0.03918			 0.13737
	165.00			  9.98581			  -0.14512			 0.05376
	165.25			  9.90560			  -0.08597			 0.13369
	165.50			  9.88045			  -0.13092			 0.15954
	165.75			  9.85054			  -0.12707			 0.11923