--------------TurbSim v2.00.* User Time Series Input File-----------------------
     Time series input from low-res turbsim run
--------------------------------------------------------------------------------
          3 nComp - Number of velocity components in the file
          1 nPoints - Number of time series points contained in this file (-)
          1 RefPtID - Index of the reference point (1-nPoints)
     Pointyi Pointzi ! nPoints listed in order of increasing height
       (m)     (m)
       -2.95118   94.00000
--------Time Series-------------------------------------------------------------
Elapsed Time         Point01u             Point01v           Point01w
         (s)            (m/s)                (m/s)              (m/s)
	0.00			  9.87881			  0.10323			 0.27061
	0.25			  9.77694			  0.41115			 0.17098
	0.50			  9.86208			  0.57115			 0.33926
	0.75			  9.61331			  0.33457			 0.20628
	1.00			  9.59468			  0.58095			 0.28498
	1.25			  9.70839			  0.43212			 0.15969
	1.50			  9.55306			  0.81685			 0.34836
	1.75			  9.47104			  0.45445			 0.32276
	2.00			  9.57074			  0.41138			 0.12019
	2.25			  9.66622			  -0.00823			 0.18848
	2.50			  9.68853			  0.17753			 -0.09237
	2.75			  9.63331			  0.26687			 -0.22807
	3.00			  9.82495			  0.43736			 0.23170
	3.25			  9.79054			  0.32910			 0.18624
	3.50			  9.50750			  -0.25621			 0.16424
	3.75			  9.43677			  -0.30840			 0.21811
	4.00			  9.57727			  -0.19102			 0.26860
	4.25			  9.54871			  0.27417			 0.09140
	4.50			  9.41882			  0.23724			 -0.26319
	4.75			  9.39665			  0.36169			 -0.58963
	5.00			  9.41922			  0.41183			 -0.51596
	5.25			  9.12802			  0.62129			 -0.72314
	5.50			  8.62368			  0.54767			 -0.63037
	5.75			  8.23822			  0.32294			 -0.48504
	6.00			  8.29943			  0.39428			 -0.57172
	6.25			  8.33942			  0.37172			 -0.89804
	6.50			  8.33942			  0.29514			 -0.80291
	6.75			  8.12955			  0.06539			 -0.97254
	7.00			  8.44537			  0.38562			 -0.70079
	7.25			  8.60124			  0.42938			 -0.33728
	7.50			  8.75521			  0.22402			 -0.44223
	7.75			  8.92767			  0.20123			 -0.05968
	8.00			  9.29096			  -0.09985			 -0.10946
	8.25			  9.32238			  -0.05062			 -0.81278
	8.50			  8.96494			  -0.03284			 -0.62109
	8.75			  8.80499			  0.04875			 -0.31493
	9.00			  8.60451			  -0.34282			 0.06024
	9.25			  9.04111			  -0.08846			 0.04338
	9.50			  9.01336			  0.31679			 -0.29855
	9.75			  9.14108			  0.19280			 -0.06488
	10.00			  9.22867			  -0.09370			 -0.00333
	10.25			  9.23071			  -0.11467			 -0.05175
	10.50			  9.22568			  -0.12652			 0.01571
	10.75			  9.38971			  -0.17598			 -0.23351
	11.00			  9.42358			  0.05559			 -0.13873
	11.25			  9.34877			  0.07041			 -0.06866
	11.50			  9.13632			  -0.18942			 -0.04324
	11.75			  9.27886			  0.13263			 -0.23653
	12.00			  8.94399			  0.27895			 -0.07227
	12.25			  9.28253			  0.48750			 0.21403
	12.50			  9.45078			  0.56864			 -0.04377
	12.75			  9.62338			  0.43371			 -0.01598
	13.00			  9.36659			  -0.08230			 -0.03839
	13.25			  9.11319			  -0.28834			 -0.00699
	13.50			  8.79560			  -0.50418			 0.69367
	13.75			  8.78024			  -0.42008			 0.21107
	14.00			  8.92060			  -0.27421			 0.13852
	14.25			  8.54534			  0.14015			 0.14952
	14.50			  8.63783			  0.25890			 -0.11248
	14.75			  8.87925			  0.30471			 -0.01497
	15.00			  8.75317			  0.17092			 -0.16463
	15.25			  8.85137			  0.38608			 -0.23505
	15.50			  8.91856			  -0.09187			 -0.21985
	15.75			  8.94263			  -0.02714			 0.09979
	16.00			  8.64286			  -0.00390			 -0.12785
	16.25			  8.57526			  -0.55524			 -0.05956
	16.50			  8.44945			  -0.82419			 -0.48533
	16.75			  8.62831			  -0.88595			 -0.20501
	17.00			  8.86347			  -0.62840			 0.05752
	17.25			  8.52834			  -0.81963			 0.00749
	17.50			  8.47489			  -1.09359			 0.21757
	17.75			  8.84756			  -1.04390			 -0.00670
	18.00			  8.39886			  -1.08721			 -0.06582
	18.25			  8.70910			  -0.81894			 -0.17143
	18.50			  8.72597			  -0.91399			 -0.23351
	18.75			  8.61049			  -1.11615			 -0.01001
	19.00			  8.36458			  -1.37576			 -0.20501
	19.25			  8.52222			  -1.61712			 -0.10118
	19.50			  8.58179			  -1.16219			 -0.16616
	19.75			  8.60886			  -1.02954			 0.06331
	20.00			  8.60872			  -0.99262			 -0.12513
	20.25			  8.50481			  -0.95387			 -0.27922
	20.50			  8.54058			  -0.83011			 0.06526
	20.75			  8.70910			  -0.56846			 0.09725
	21.00			  8.47652			  -0.42943			 0.07318
	21.25			  8.71658			  -0.60652			 0.07265
	21.50			  8.69931			  -0.64185			 0.02157
	21.75			  8.87150			  -0.64276			 0.26535
	22.00			  8.91380			  -0.46794			 0.39886
	22.25			  8.73603			  -0.52128			 0.10777
	22.50			  8.47978			  -0.32344			 0.46425
	22.75			  8.43435			  -0.11581			 0.17305
	23.00			  8.19592			  -0.23227			 0.10860
	23.25			  8.27889			  0.08362			 0.12054
	23.50			  8.39477			  -0.09985			 0.17624
	23.75			  8.30419			  -0.17940			 0.15981
	24.00			  8.34499			  0.09662			 0.17423
	24.25			  8.25319			  -0.15774			 0.18825
	24.50			  8.06522			  -0.21313			 0.13474
	24.75			  8.17239			  -0.28242			 0.07182
	25.00			  8.49502			  -0.11330			 -0.02834
	25.25			  8.72121			  0.04465			 -0.11591
	25.50			  8.59703			  0.07610			 -0.46842
	25.75			  8.78704			  0.07588			 -0.91282
	26.00			  8.99269			  0.46311			 -0.42940
	26.25			  9.24662			  0.45514			 -0.24693
	26.50			  8.70788			  0.59052			 -0.04028
	26.75			  8.27019			  0.52807			 -0.29033
	27.00			  8.43571			  0.47383			 -0.39280
	27.25			  8.39545			  -0.00663			 -0.45577
	27.50			  8.50182			  -0.06156			 -0.16273
	27.75			  8.67278			  0.14585			 0.23135
	28.00			  8.68530			  0.20260			 0.13692
	28.25			  8.59091			  0.11212			 0.20344
	28.50			  8.71985			  0.26072			 0.25063
	28.75			  8.67265			  0.14380			 0.38774
	29.00			  8.59567			  -0.16048			 0.56601
	29.25			  8.78146			  -0.21564			 0.33329
	29.50			  8.79343			  -0.44766			 0.05982
	29.75			  8.68421			  -0.56800			 -0.34579
	30.00			  8.66694			  -0.46225			 -0.28590
	30.25			  8.52399			  -0.51672			 -0.48338
	30.50			  8.59784			  -0.18168			 -0.47250
	30.75			  8.75806			  -0.13518			 -0.05577
	31.00			  8.93543			  -0.25119			 -0.21536
	31.25			  8.82294			  -0.00321			 -0.41338
	31.50			  8.60464			  -0.07387			 -0.68087
	31.75			  8.90605			  -0.16002			 -0.42946
	32.00			  8.91448			  -0.33780			 -0.20448
	32.25			  8.87925			  -0.30339			 0.21852
	32.50			  8.90251			  -0.25438			 0.24264
	32.75			  9.19031			  -0.43877			 0.15040
	33.00			  9.00248			  -0.31182			 0.09500
	33.25			  8.80309			  -0.28014			 -0.15381
	33.50			  8.59567			  -0.45974			 -0.01586
	33.75			  8.46305			  -0.37678			 -0.07830
	34.00			  8.63593			  -0.53473			 0.11032
	34.25			  8.68693			  -0.41279			 -0.35224
	34.50			  8.68421			  -0.82715			 -0.48433
	34.75			  8.57132			  -0.57849			 -0.06801
	35.00			  8.54153			  -0.59011			 0.26139
	35.25			  8.76228			  -0.22658			 -0.00705
	35.50			  8.97963			  0.07975			 -0.20188
	35.75			  8.79057			  0.20306			 -0.05571
	36.00			  8.69087			  0.13992			 0.37166
	36.25			  8.61498			  -0.02874			 0.21113
	36.50			  8.66680			  0.23633			 0.04687
	36.75			  8.56874			  0.29354			 0.18493
	37.00			  8.31181			  0.48272			 0.24743
	37.25			  8.63701			  0.18801			 0.40850
	37.50			  8.79574			  0.02733			 0.51203
	37.75			  8.76704			  -0.09279			 0.33660
	38.00			  8.73209			  -0.02373			 0.13716
	38.25			  8.74106			  0.15816			 -0.36448
	38.50			  8.67483			  0.51371			 -0.55895
	38.75			  8.86225			  0.09502			 -0.32870
	39.00			  8.83818			  -0.00367			 -0.15623
	39.25			  8.68611			  -0.01142			 -0.09533
	39.50			  8.64300			  -0.09962			 -0.10089
	39.75			  8.69169			  -0.49165			 0.02689
	40.00			  8.48822			  -0.43786			 0.24122
	40.25			  8.41300			  -0.42920			 0.00513
	40.50			  8.22394			  -0.59991			 -0.05347
	40.75			  8.48277			  -0.28219			 -0.14506
	41.00			  8.51596			  -0.08025			 -0.57231
	41.25			  8.91366			  0.03029			 -0.52394
	41.50			  8.97038			  -0.32641			 -0.59265
	41.75			  8.80349			  -0.53040			 -0.73343
	42.00			  8.83682			  -0.40527			 -0.40226
	42.25			  9.02574			  -0.36287			 -0.26656
	42.50			  8.83858			  -0.08526			 -0.16025
	42.75			  8.86429			  -0.00344			 0.08418
	43.00			  8.85858			  -0.10259			 0.11919
	43.25			  8.75507			  0.25525			 0.04971
	43.50			  8.51555			  -0.12857			 0.01902
	43.75			  8.65524			  -0.12561			 0.18375
	44.00			  9.02220			  -0.22133			 0.06739
	44.25			  8.90401			  0.10482			 0.25530
	44.50			  8.84974			  -0.21267			 0.35895
	44.75			  9.16583			  -0.17848			 0.17678
	45.00			  8.94671			  -0.31774			 0.47377
	45.25			  8.73984			  -0.26190			 0.27132
	45.50			  8.94658			  -0.25210			 0.16335
	45.75			  8.91394			  -0.08458			 0.45639
	46.00			  8.73127			  0.04055			 0.28208
	46.25			  8.63130			  -0.24367			 0.28368
	46.50			  8.85436			  -0.40025			 0.01240
	46.75			  9.14393			  -0.37267			 0.01577
	47.00			  9.24948			  -0.49188			 0.28214
	47.25			  9.45200			  -0.17712			 -0.07523
	47.50			  9.15400			  -0.18418			 0.30662
	47.75			  8.92318			  -0.48686			 0.46532
	48.00			  8.81397			  -0.40869			 0.49512
	48.25			  8.99092			  -0.49689			 0.27043
	48.50			  9.05036			  0.02277			 0.11440
	48.75			  8.89476			  -0.11626			 0.52054
	49.00			  8.61090			  -0.46544			 0.04782
	49.25			  8.77330			  -0.20629			 0.04977
	49.50			  8.78336			  0.10072			 -0.01799
	49.75			  8.92087			  -0.10008			 -0.06831
	50.00			  8.80853			  -0.34829			 -0.18585
	50.25			  8.80961			  -0.30316			 -0.02367
	50.50			  8.72692			  -0.38680			 -0.13577
	50.75			  8.78935			  -0.47455			 -0.24457
	51.00			  8.63348			  -0.50601			 0.06993
	51.25			  8.69305			  -0.31729			 0.41748
	51.50			  8.77656			  -0.37997			 0.29148
	51.75			  8.62436			  -0.80299			 0.02754
	52.00			  9.02941			  -0.35809			 0.06526
	52.25			  8.82988			  -0.50851			 -0.25941
	52.50			  8.75330			  -0.75376			 -0.08049
	52.75			  8.68190			  -0.87866			 -0.07162
	53.00			  8.55758			  -0.97644			 0.06763
	53.25			  8.33166			  -1.04139			 -0.08368
	53.50			  8.46523			  -0.68675			 0.28717
	53.75			  8.40702			  -0.68629			 0.22035
	54.00			  8.33629			  -0.78088			 0.31295
	54.25			  8.36812			  -0.75057			 0.09157
	54.50			  8.29195			  -0.46247			 -0.26952
	54.75			  8.39477			  -0.13336			 -0.16220
	55.00			  8.34295			  -0.46498			 0.41056
	55.25			  8.23401			  -0.21176			 0.49831
	55.50			  8.34622			  -0.22635			 0.50363
	55.75			  8.34091			  -0.44379			 0.60811
	56.00			  8.47434			  -0.57461			 0.46940
	56.25			  8.66204			  -0.78749			 0.43398
	56.50			  8.50576			  -0.84082			 0.43422
	56.75			  8.61702			  -0.91399			 0.20108
	57.00			  8.55772			  -0.53359			 -0.13140
	57.25			  8.58410			  -0.59034			 0.02955
	57.50			  8.67442			  -0.56550			 -0.22139
	57.75			  8.61960			  -0.32481			 0.07644
	58.00			  8.41395			  -0.24891			 0.06136
	58.25			  8.31235			  -0.20811			 0.02748
	58.50			  8.18355			  -0.32253			 -0.32250
	58.75			  8.36716			  -0.14863			 -0.47700
	59.00			  8.46659			  -0.03831			 -0.23073
	59.25			  8.58859			  -0.15957			 -0.14269
	59.50			  8.59023			  -0.12561			 -0.36530
	59.75			  8.54357			  0.19143			 -0.41828
	60.00			  9.06015			  -0.17621			 -0.61435
	60.25			  8.85395			  -0.06999			 -0.28193
	60.50			  8.52888			  -0.24185			 -0.13630
	60.75			  9.13196			  -0.22270			 -0.06925
	61.00			  8.81777			  -0.00071			 0.03126
	61.25			  9.17848			  0.04921			 0.15508
	61.50			  9.36237			  -0.03877			 -0.09616
	61.75			  9.34387			  -0.40276			 0.07466
	62.00			  9.21711			  -0.26441			 -0.09237
	62.25			  9.38114			  -0.08868			 -0.22316
	62.50			  9.38780			  -0.17575			 -0.25367
	62.75			  9.58013			  -0.27421			 -0.47936
	63.00			  9.64174			  -0.10031			 -0.42893
	63.25			  9.39746			  -0.19193			 -0.05045
	63.50			  9.40236			  -0.18145			 0.10145
	63.75			  9.36264			  0.14927			 0.12699
	64.00			  9.55374			  0.32773			 0.73027
	64.25			  9.61005			  0.18004			 0.73446
	64.50			  9.32565			  0.21468			 0.83090
	64.75			  9.50614			  0.18277			 0.52167
	65.00			  9.45295			  0.36625			 0.08312
	65.25			  9.06260			  0.63747			 0.30875
	65.50			  9.76524			  0.89252			 0.31224
	65.75			  9.94246			  1.09970			 0.62922
	66.00			  9.95525			  1.15645			 0.61148
	66.25			  9.61114			  1.07485			 0.29698
	66.50			  9.75069			  0.80841			 0.01004
	66.75			  9.85202			  0.81047			 -0.01953
	67.00			  9.72348			  0.88021			 -0.12146
	67.25			  9.78850			  0.70722			 -0.19797
	67.50			  9.76796			  0.58733			 -0.67336
	67.75			  9.81040			  0.64386			 -0.74768
	68.00			  9.96926			  0.49229			 -0.46115
	68.25			  10.18443			  0.72887			 -0.34834
	68.50			  10.23163			  0.86859			 -0.23528
	68.75			  10.24945			  0.78038			 -0.53465
	69.00			  10.28780			  0.57525			 -0.34881
	69.25			  10.20048			  0.94813			 -0.16143
	69.50			  10.37023			  0.46722			 -0.17420
	69.75			  10.60308			  0.00818			 -0.18491
	70.00			  10.47713			  0.07679			 -0.46754
	70.25			  10.59628			  0.01046			 -0.26739
	70.50			  10.68047			  0.42870			 -0.19738
	70.75			  10.46244			  0.11850			 -0.42130
	71.00			  10.27474			  -0.05176			 -0.41077
	71.25			  10.15424			  0.35599			 -0.06825
	71.50			  10.22796			  0.48226			 -0.48332
	71.75			  10.43524			  0.46995			 -0.59046
	72.00			  10.43592			  0.32203			 -0.26313
	72.25			  10.57479			  0.45628			 -0.30505
	72.50			  10.63790			  0.33707			 0.05888
	72.75			  10.19069			  0.57480			 -0.11129
	73.00			  9.98885			  0.44556			 -0.21766
	73.25			  10.01578			  0.16089			 -0.30961
	73.50			  10.07426			  -0.06475			 -0.28329
	73.75			  10.07141			  0.09570			 -0.09521
	74.00			  10.06324			  -0.16868			 -0.19502
	74.25			  10.15070			  -0.17985			 -0.15688
	74.50			  10.24550			  0.02961			 -0.25385
	74.75			  10.36274			  -0.13678			 -0.38706
	75.00			  10.21286			  -0.00162			 -0.51247
	75.25			  10.27420			  0.11006			 -0.66313
	75.50			  10.50148			  -0.10601			 -0.05175
	75.75			  10.71352			  -0.29199			 -0.11401
	76.00			  10.69434			  -0.37632			 0.23691
	76.25			  10.87143			  -0.34350			 0.49955
	76.50			  10.67585			  -0.14316			 0.10937
	76.75			  10.47373			  -0.21814			 0.15011
	77.00			  10.27869			  -0.08116			 0.05503
	77.25			  10.15220			  -0.05313			 0.04924
	77.50			  9.62555			  0.11439			 0.14189
	77.75			  9.39678			  0.04989			 -0.06287
	78.00			  9.30592			  -0.01233			 0.16211
	78.25			  9.42113			  0.02095			 0.11422
	78.50			  9.56421			  -0.11376			 0.07496
	78.75			  10.11180			  0.18847			 0.25648
	79.00			  10.31283			  -0.01393			 0.40430
	79.25			  10.21898			  0.02095			 0.39129
	79.50			  10.14893			  0.04807			 0.26121
	79.75			  10.15070			  -0.21723			 0.15194
	80.00			  10.42327			  -0.15980			 0.01908
	80.25			  10.31691			  -0.06544			 0.23697
	80.50			  10.01210			  0.00385			 0.19191
	80.75			  10.31296			  0.15542			 0.35297
	81.00			  10.40056			  -0.37974			 -0.02721
	81.25			  10.14104			  0.04647			 0.02736
	81.50			  10.01278			  -0.14407			 0.14544
	81.75			  10.16648			  -0.23752			 -0.30452
	82.00			  10.09752			  0.03098			 -0.28525
	82.25			  10.05862			  0.00431			 -0.14352
	82.50			  10.33826			  0.25685			 -0.06600
	82.75			  10.41919			  0.33001			 -0.27070
	83.00			  10.43116			  0.18573			 0.18287
	83.25			  10.17722			  0.32203			 0.13273
	83.50			  10.34738			  -0.02509			 0.12190
	83.75			  10.46992			  0.03280			 0.35232
	84.00			  10.63123			  -0.21495			 0.39300
	84.25			  10.27665			  0.08545			 0.19469
	84.50			  10.17151			  0.18437			 0.04078
	84.75			  10.05019			  -0.08207			 0.16040
	85.00			  9.98286			  0.06060			 0.14213
	85.25			  9.83420			  -0.16344			 0.19605
	85.50			  9.92451			  -0.08777			 0.29468
	85.75			  9.96980			  0.04944			 0.45296
	86.00			  10.02339			  0.49046			 0.21012
	86.25			  9.98517			  0.39519			 0.46703
	86.50			  9.75477			  0.25730			 0.09991
	86.75			  9.42398			  0.36169			 0.20415
	87.00			  9.64568			  0.15269			 0.29958
	87.25			  9.34550			  0.05422			 0.21876
	87.50			  9.51375			  -0.37313			 0.13255
	87.75			  9.63698			  -0.31911			 -0.04625
	88.00			  9.82713			  0.07565			 -0.15706
	88.25			  9.52559			  0.21810			 -0.28885
	88.50			  9.45717			  0.19462			 -0.64409
	88.75			  9.44724			  0.40705			 -0.45116
	89.00			  9.22336			  0.51121			 -0.22434
	89.25			  9.25900			  0.74779			 -0.30026
	89.50			  9.05566			  0.65024			 -0.02432
	89.75			  9.13604			  0.28898			 0.09979
	90.00			  9.40249			  0.32818			 0.10724
	90.25			  9.58298			  0.38334			 0.16436
	90.50			  9.60393			  -0.12333			 0.13586
	90.75			  9.64732			  0.14129			 -0.09657
	91.00			  9.84209			  -0.19262			 0.28912
	91.25			  9.51797			  -0.23022			 0.20675
	91.50			  9.35530			  -0.31683			 0.19871
	91.75			  9.40943			  -0.42897			 0.80388
	92.00			  9.18719			  -0.35512			 0.89659
	92.25			  8.82458			  -0.27535			 0.31904
	92.50			  8.68965			  -0.54703			 0.47117
	92.75			  8.48890			  -0.27672			 0.88228
	93.00			  8.63973			  -0.10806			 0.76013
	93.25			  8.44891			  -0.44379			 0.71194
	93.50			  8.87830			  -0.08709			 0.57878
	93.75			  8.97691			  -0.36492			 0.75445
	94.00			  8.93896			  -0.72755			 0.75800
	94.25			  9.13346			  -0.44857			 1.05121
	94.50			  9.44697			  -0.27170			 0.90836
	94.75			  9.42086			  0.22380			 0.40779
	95.00			  9.41120			  0.11234			 0.01648
	95.25			  9.43500			  -0.01643			 -0.35602
	95.50			  9.60855			  0.10414			 -0.26183
	95.75			  9.66785			  -0.27011			 -0.34207
	96.00			  9.77354			  -0.32208			 -0.39327
	96.25			  9.51430			  0.20146			 -0.15854
	96.50			  9.42602			  0.28032			 0.03936
	96.75			  9.16801			  0.70334			 0.13663
	97.00			  9.39393			  0.70243			 -0.29506
	97.25			  9.28715			  0.70653			 -0.24001
	97.50			  9.31885			  0.25274			 -0.01172
	97.75			  9.50342			  0.41799			 -0.10834
	98.00			  9.72280			  0.37263			 -0.01846
	98.25			  9.82781			  0.27326			 0.11026
	98.50			  9.91363			  0.63383			 0.00235
	98.75			  10.21680			  0.49366			 -0.05867
	99.00			  10.24224			  0.37035			 0.08838
	99.25			  10.22687			  0.64841			 0.36651
	99.50			  10.22796			  0.82528			 -0.07280
	99.75			  10.38845			  0.86995			 -0.32480
	100.00			  10.40382			  0.67713			 -0.54606
	100.25			  10.43551			  0.48385			 -0.72385
	100.50			  10.13424			  0.25730			 -0.65402
	100.75			  10.18538			  0.33571			 -0.18296
	101.00			  10.04896			  0.25320			 0.07366
	101.25			  10.07481			  0.14881			 -0.23321
	101.50			  9.98354			  0.44807			 -0.32049
	101.75			  9.93689			  0.14972			 -0.49036
	102.00			  9.71845			  0.08408			 -0.52252
	102.25			  9.46887			  0.39405			 -0.62345
	102.50			  9.69275			  0.10551			 -0.52950
	102.75			  9.76660			  0.00636			 -0.02922
	103.00			  9.64895			  -0.36834			 -0.22689
	103.25			  9.73722			  -0.01347			 -0.05926
	103.50			  10.19885			  -0.20264			 -0.09503
	103.75			  10.23027			  -0.32595			 -0.07528
	104.00			  10.20456			  0.31724			 -0.40474
	104.25			  10.17763			  0.23177			 -0.41651
	104.50			  10.22551			  0.25297			 -0.06872
	104.75			  10.25869			  -0.04629			 -0.02834
	105.00			  10.54337			  -0.27376			 -0.11898
	105.25			  10.47414			  -0.39820			 -0.46564
	105.50			  10.42313			  -0.28743			 -0.38724
	105.75			  10.30508			  -0.21792			 -0.32593
	106.00			  10.24237			  -0.04401			 -0.03803
	106.25			  10.58241			  -0.11170			 -0.09415
	106.50			  10.43850			  0.02756			 -0.14452
	106.75			  10.39566			  0.12465			 0.15046
	107.00			  10.27515			  -0.30430			 0.09222
	107.25			  10.13438			  -0.50168			 0.00318
	107.50			  10.12812			  -0.44379			 -0.31499
	107.75			  9.81679			  -0.54065			 -0.13335
	108.00			  9.59373			  -0.50943			 0.19392
	108.25			  9.65425			  -0.53860			 -0.19366
	108.50			  9.55972			  -0.24162			 -0.02739
	108.75			  9.52001			  -0.41529			 -0.03230
	109.00			  9.22160			  -0.60424			 0.01370
	109.25			  9.32306			  -0.28014			 0.04049
	109.50			  9.61495			  -0.41529			 -0.13820
	109.75			  9.58407			  -0.61154			 -0.04578
	110.00			  9.40780			  -0.43558			 0.00844
	110.25			  9.74769			  -0.86293			 -0.20915
	110.50			  9.65004			  -0.91444			 -0.13932
	110.75			  9.88493			  -0.75968			 -0.02053
	111.00			  10.11915			  -0.86795			 -0.19041
	111.25			  10.04243			  -0.93199			 -0.32912
	111.50			  10.02625			  -0.92379			 -0.30452
	111.75			  9.99918			  -1.13872			 -0.30878
	112.00			  9.93471			  -1.11159			 -0.27490
	112.25			  9.89704			  -0.89644			 -0.15085
	112.50			  9.85678			  -0.66555			 0.05740
	112.75			  9.91472			  -0.58646			 -0.05902
	113.00			  9.84685			  -0.61381			 -0.17669
	113.25			  9.98966			  -0.87342			 0.01246
	113.50			  10.02774			  -1.07034			 0.10375
	113.75			  10.09004			  -1.02202			 0.26736
	114.00			  10.36968			  -1.06487			 0.30390
	114.25			  10.28046			  -0.93723			 0.28131
	114.50			  10.25366			  -0.60834			 0.46827
	114.75			  10.11180			  -1.18088			 0.35215
	115.00			  10.15669			  -0.96139			 0.15892
	115.25			  10.17858			  -0.90829			 -0.15091
	115.50			  10.06216			  -0.69268			 -0.04442
	115.75			  10.24591			  -0.62681			 -0.19738
	116.00			  10.44979			  -0.68675			 -0.17805
	116.25			  10.64348			  -0.39250			 0.08040
	116.50			  10.42273			  -0.25849			 -0.07546
	116.75			  10.31718			  -0.64755			 0.04025
	117.00			  10.10922			  -0.58487			 0.13698
	117.25			  10.05209			  -0.46977			 0.00986
	117.50			  10.22347			  -0.37860			 0.15265
	117.75			  10.28535			  -0.29267			 0.10346
	118.00			  10.41769			  -0.09233			 -0.05027
	118.25			  10.36941			  -0.25735			 0.18174
	118.50			  10.13860			  0.35394			 0.36811
	118.75			  10.06610			  0.27736			 0.06845
	119.00			  10.00013			  0.11006			 0.14414
	119.25			  10.08446			  0.53719			 -0.04732
	119.50			  9.94981			  0.66186			 0.03085
	119.75			  9.99429			  0.56066			 0.28551
	120.00			  10.12323			  0.52260			 0.11617
	120.25			  10.10595			  0.42004			 -0.10846
	120.50			  9.91322			  0.10596			 -0.11330
	120.75			  10.13900			  0.32317			 -0.11656
	121.00			  10.27950			  0.68032			 -0.17296
	121.25			  9.89268			  0.70038			 -0.19425
	121.50			  10.26930			  0.83508			 -0.26662
	121.75			  10.29392			  0.60739			 -0.38754
	122.00			  10.54024			  0.32568			 -0.26343
	122.25			  10.16077			  -0.13928			 -0.24841
	122.50			  9.82998			  -0.37883			 -0.29270
	122.75			  9.91390			  -0.09005			 -0.03951
	123.00			  9.39284			  0.02003			 0.20060
	123.25			  9.56503			  -0.03603			 -0.09013
	123.50			  9.43282			  -0.02737			 -0.51998
	123.75			  9.34170			  -0.28971			 -0.48634
	124.00			  9.46234			  -0.50418			 -0.13364
	124.25			  9.50546			  -0.40755			 -0.48433
	124.50			  9.64977			  -0.27740			 -0.42124
	124.75			  9.76470			  -0.21381			 -0.29914
	125.00			  9.73817			  -0.34510			 -0.47836
	125.25			  9.87555			  -0.31661			 -0.49568
	125.50			  9.95389			  0.04875			 -0.75974
	125.75			  9.92002			  0.00431			 -0.76140
	126.00			  9.76470			  0.01160			 -0.93789
	126.25			  9.87255			  0.11508			 -1.08376
	126.50			  9.95443			  0.15884			 -0.96421
	126.75			  9.79353			  0.27417			 -0.78570
	127.00			  9.76442			  0.35531			 -0.93819
	127.25			  9.90533			  0.65708			 -0.89514
	127.50			  9.84154			  0.43120			 -1.02990
	127.75			  10.16226			  0.57274			 -1.10410
	128.00			  10.33813			  0.58482			 -0.92684
	128.25			  10.25393			  0.48727			 -0.76104
	128.50			  10.24618			  0.53309			 -0.79806
	128.75			  10.19844			  0.25365			 -0.30594
	129.00			  9.97293			  0.31474			 -0.48516
	129.25			  9.97144			  0.23246			 -0.47073
	129.50			  9.99864			  0.41001			 -0.66029
	129.75			  10.06460			  0.47519			 -0.68359
	130.00			  10.10065			  0.27713			 -0.50969
	130.25			  9.97198			  0.37422			 -0.17775
	130.50			  10.29651			  0.10938			 -0.14127
	130.75			  10.25747			  0.08590			 -0.28247
	131.00			  10.23040			  0.19736			 -0.32699
	131.25			  9.92574			  0.05582			 -0.16297
	131.50			  9.89200			  0.04009			 -0.10000
	131.75			  10.27257			  0.05172			 -0.07292
	132.00			  10.57601			  0.32773			 0.12303
	132.25			  11.08701			  0.26277			 0.06083
	132.50			  11.16549			  -0.07068			 -0.02727
	132.75			  10.83104			  0.36420			 -0.06925
	133.00			  11.07763			  0.05240			 -0.33988
	133.25			  10.86586			  -0.04903			 -0.57195
	133.50			  11.04458			  -0.13655			 -0.26851
	133.75			  10.92815			  -0.10828			 -0.10887
	134.00			  10.72304			  -0.20037			 0.26452
	134.25			  11.00513			  -0.22658			 0.23336
	134.50			  10.81268			  -0.10783			 0.52149
	134.75			  11.21146			  -0.22475			 0.04764
	135.00			  11.21228			  0.31405			 0.36350
	135.25			  11.48567			  0.16773			 0.15756
	135.50			  11.38338			  0.08499			 0.45917
	135.75			  11.24220			  0.43462			 0.69000
	136.00			  11.24601			  0.40727			 0.32997
	136.25			  11.32735			  0.89206			 0.19345
	136.50			  11.30817			  1.05024			 0.34351
	136.75			  11.17148			  1.18335			 0.52468
	137.00			  11.19691			  0.89753			 0.59232
	137.25			  10.67503			  0.75440			 0.43676
	137.50			  10.76820			  0.41890			 0.44575
	137.75			  10.74562			  0.48591			 0.44758
	138.00			  10.52841			  0.45012			 0.65890
	138.25			  10.81036			  0.34984			 0.55537
	138.50			  10.67639			  0.47291			 0.76030
	138.75			  10.44558			  0.31041			 0.92527
	139.00			  10.75269			  0.44055			 0.59717
	139.25			  10.78452			  0.61172			 0.41867
	139.50			  10.37961			  0.92465			 0.19983
	139.75			  10.56704			  0.59941			 0.14863
	140.00			  10.31541			  0.03439			 0.20001
	140.25			  10.24319			  0.38266			 -0.11792
	140.50			  10.65884			  0.54403			 0.01441
	140.75			  10.47060			  0.71542			 -0.09858
	141.00			  10.52963			  0.77787			 0.08501
	141.25			  10.58907			  0.64841			 0.03126
	141.50			  10.72032			  0.39884			 0.23147
	141.75			  10.60254			  0.01229			 -0.02183
	142.00			  10.59084			  0.29491			 0.08761
	142.25			  10.29406			  0.20511			 0.30514
	142.50			  10.65449			  0.33115			 0.44379
	142.75			  10.40246			  0.18277			 0.35629
	143.00			  10.27338			  -0.04492			 0.19830
	143.25			  10.00095			  0.09434			 0.26718
	143.50			  9.96708			  0.06904			 0.34269
	143.75			  10.12867			  0.17274			 0.63259
	144.00			  10.21993			  -0.18623			 0.41051
	144.25			  10.42762			  0.05513			 0.30047
	144.50			  10.31895			  0.02915			 0.05686
	144.75			  10.28644			  0.08226			 0.24016
	145.00			  10.33010			  -0.12196			 0.31123
	145.25			  10.39675			  -0.14885			 0.64412
	145.50			  10.25230			  -0.05199			 0.59084
	145.75			  10.19164			  0.18209			 0.24714
	146.00			  10.42436			  0.06904			 0.21604
	146.25			  10.39770			  -0.00458			 0.12912
	146.50			  10.30140			  0.03645			 -0.09923
	146.75			  10.39593			  0.18437			 0.10890
	147.00			  10.51875			  0.14220			 0.07874
	147.25			  10.56282			  0.14653			 0.37810
	147.50			  10.74127			  -0.40071			 0.39170
	147.75			  10.68618			  -0.83991			 0.40891
	148.00			  10.80356			  -0.37518			 0.51173
	148.25			  11.10361			  0.01297			 0.42410
	148.50			  11.10361			  -0.11489			 0.61036
	148.75			  11.06648			  -0.34373			 0.45550
	149.00			  10.86178			  -0.27945			 0.49358
	149.25			  11.12496			  -0.16367			 0.57831
	149.50			  10.89292			  -0.34145			 0.76078
	149.75			  11.08021			  -0.49917			 0.55779
	150.00			  10.93359			  -0.68401			 0.09902
	150.25			  11.02989			  -0.64344			 -0.14819
	150.50			  10.82396			  -0.08481			 0.16938
	150.75			  10.95399			  -0.26099			 0.30213
	151.00			  10.65993			  -0.06931			 0.31886
	151.25			  10.57479			  -0.24299			 0.62987
	151.50			  10.67489			  -0.30475			 0.42239
	151.75			  10.64565			  -0.45609			 0.41600
	152.00			  10.84654			  -0.24800			 0.42659
	152.25			  10.97575			  -0.70498			 0.53385
	152.50			  10.74984			  -0.76082			 0.53385
	152.75			  10.83444			  -0.44926			 0.49660
	153.00			  10.99901			  -0.45153			 0.05568
	153.25			  10.71801			  -0.28561			 0.33932
	153.50			  10.76670			  -0.45267			 0.09151
	153.75			  10.81907			  -0.19786			 0.35936
	154.00			  10.78384			  -0.49096			 0.33216
	154.25			  10.77146			  -0.23774			 0.35877
	154.50			  10.68999			  -0.06680			 0.12971
	154.75			  10.57003			  -0.11193			 0.18340
	155.00			  10.72808			  0.01092			 0.17163
	155.25			  10.95481			  -0.13700			 0.52356
	155.50			  11.23948			  -0.14749			 0.51800
	155.75			  11.30259			  0.02619			 0.55283
	156.00			  11.26356			  -0.29153			 0.46183
	156.25			  10.96746			  -0.18122			 0.15460
	156.50			  10.81934			  0.03531			 0.25033
	156.75			  10.77650			  0.03257			 0.15691
	157.00			  10.58268			  -0.09871			 0.31519
	157.25			  10.70631			  -0.15524			 0.63022
	157.50			  10.67122			  -0.22407			 0.55389
	157.75			  10.44190			  -0.60812			 0.24176
	158.00			  10.39376			  -0.62179			 0.17287
	158.25			  10.48747			  -0.60265			 0.02866
	158.50			  10.54337			  -0.38726			 0.39265
	158.75			  10.40056			  -0.06817			 0.07537
	159.00			  10.31337			  0.07633			 0.13468
	159.25			  10.48774			  0.19006			 0.04628
	159.50			  10.39484			  0.37422			 0.16365
	159.75			  10.38002			  0.44420			 -0.15227
	160.00			  10.31120			  0.59029			 -0.41805
	160.25			  10.58458			  0.53309			 -0.39960
	160.50			  10.36179			  0.32157			 -0.33757
	160.75			  10.42218			  0.08294			 -0.01568
	161.00			  10.43021			  0.07702			 0.20533
	161.25			  10.49753			  0.33799			 0.21154
	161.50			  10.61750			  0.06904			 -0.16888
	161.75			  10.79241			  -0.10737			 -0.44850
	162.00			  11.04498			  -0.41803			 -0.60838
	162.25			  10.93862			  -0.47638			 -0.74898
	162.50			  10.80397			  -0.56641			 -0.59756
	162.75			  11.03030			  -0.64390			 -0.50029
	163.00			  11.10728			  -0.37450			 -0.56131
	163.25			  11.00323			  -0.42988			 -0.66082
	163.50			  10.87823			  -0.21222			 -0.91933
	163.75			  11.17243			  -0.18395			 -0.88362
	164.00			  11.40936			  0.00157			 -0.95498
	164.25			  11.02186			  0.22904			 -0.73893
	164.50			  11.05927			  -0.05541			 -0.99312
	164.75			  11.20290			  0.01137			 -1.19628
	165.00			  11.21745			  0.29878			 -1.02984
	165.25			  11.08837			  0.09981			 -0.85896
	165.50			  11.31769			  -0.15478			 -0.76690
	165.75			  11.31728			  -0.57598			 -0.61878
	166.00			  11.02785			  -0.16276			 -0.33456
	166.25			  10.81988			  -0.09940			 -0.21713
	166.50			  10.89115			  -0.20584			 -0.07381