--------------TurbSim v2.00.* User Time Series Input File-----------------------
     Time series input from low-res turbsim run
--------------------------------------------------------------------------------
          3 nComp - Number of velocity components in the file
          1 nPoints - Number of time series points contained in this file (-)
          1 RefPtID - Index of the reference point (1-nPoints)
     Pointyi Pointzi ! nPoints listed in order of increasing height
       (m)     (m)
       2.73515   94.00000
--------Time Series-------------------------------------------------------------
Elapsed Time         Point01u             Point01v           Point01w
         (s)            (m/s)                (m/s)              (m/s)
	0.00			  9.60946			  0.00067			 0.19933
	0.25			  9.79691			  -0.12818			 -0.06306
	0.50			  9.75711			  -0.01378			 -0.04180
	0.75			  9.84613			  0.19081			 0.05537
	1.00			  9.93960			  0.00828			 -0.02186
	1.25			  9.97495			  0.04967			 -0.18289
	1.50			  10.13485			  0.31673			 -0.01355
	1.75			  9.91236			  0.21443			 0.19284
	2.00			  9.73139			  -0.01807			 0.13291
	2.25			  9.86081			  0.00809			 0.05673
	2.50			  9.96806			  0.09652			 -0.08529
	2.75			  9.77453			  0.29272			 -0.20769
	3.00			  9.92380			  0.26656			 0.04180
	3.25			  10.18488			  0.49613			 0.18685
	3.50			  10.22336			  0.29369			 0.12614
	3.75			  10.13090			  0.39638			 0.05972
	4.00			  10.00695			  0.47525			 0.02019
	4.25			  9.69746			  0.56739			 -0.04981
	4.50			  9.93353			  0.38740			 -0.32868
	4.75			  10.03550			  0.27105			 -0.12552
	5.00			  10.04938			  0.31399			 -0.11472
	5.25			  10.01029			  0.36104			 -0.19622
	5.50			  10.07176			  0.38935			 -0.23777
	5.75			  10.04442			  0.21892			 -0.06174
	6.00			  9.95844			  0.01746			 -0.27699
	6.25			  10.12553			  0.01414			 -0.07880
	6.50			  10.17860			  -0.17952			 0.07134
	6.75			  10.06487			  0.10550			 0.19054
	7.00			  10.00836			  0.19706			 0.13205
	7.25			  10.07682			  -0.00128			 -0.06808
	7.50			  9.88431			  -0.08464			 0.07593
	7.75			  9.78891			  -0.02354			 0.19568
	8.00			  9.76258			  0.28940			 0.31430
	8.25			  10.02457			  0.13791			 0.03069
	8.50			  9.97353			  0.05494			 -0.01945
	8.75			  10.10103			  0.16914			 0.13633
	9.00			  9.98062			  0.08266			 0.05292
	9.25			  10.07541			  -0.10182			 0.01417
	9.50			  9.97576			  -0.15219			 0.27162
	9.75			  9.98436			  -0.08015			 0.27147
	10.00			  9.81028			  -0.10553			 0.21981
	10.25			  9.81534			  0.16524			 0.38158
	10.50			  9.75721			  0.24372			 0.33361
	10.75			  9.71235			  0.06724			 0.13924
	11.00			  9.68177			  -0.06981			 0.04402
	11.25			  9.52865			  0.15528			 -0.03228
	11.50			  9.59893			  0.31321			 -0.17710
	11.75			  9.59832			  0.26129			 -0.18522
	12.00			  9.71124			  0.03522			 -0.28095
	12.25			  9.56520			  0.03776			 -0.30007
	12.50			  9.56733			  -0.07683			 -0.16859
	12.75			  9.94234			  -0.25663			 -0.33820
	13.00			  9.94001			  -0.09714			 -0.63631
	13.25			  9.86183			  -0.23711			 -0.57335
	13.50			  9.86689			  -0.32632			 -0.57463
	13.75			  9.79742			  -0.23711			 -0.56316
	14.00			  9.59640			  -0.10455			 -0.28254
	14.25			  9.77078			  -0.05731			 -0.22887
	14.50			  9.90071			  -0.01085			 0.00332
	14.75			  9.81474			  0.13478			 -0.07857
	15.00			  9.86669			  0.20819			 -0.18720
	15.25			  9.86567			  0.09262			 -0.21639
	15.50			  9.90011			  0.03229			 0.02190
	15.75			  9.79691			  -0.06102			 0.11565
	16.00			  9.75590			  -0.07586			 -0.05241
	16.25			  9.81079			  -0.02490			 -0.15312
	16.50			  9.83144			  0.23864			 -0.08265
	16.75			  9.75468			  0.24645			 -0.07950
	17.00			  9.82527			  0.02234			 -0.05797
	17.25			  10.10650			  0.09925			 -0.13248
	17.50			  9.99024			  0.29115			 -0.29615
	17.75			  9.83458			  0.12034			 -0.20018
	18.00			  9.72309			  -0.02686			 -0.26568
	18.25			  9.77727			  -0.31929			 -0.12463
	18.50			  9.93170			  -0.33979			 0.08444
	18.75			  9.88441			  -0.20919			 0.08133
	19.00			  9.94780			  -0.29235			 -0.03690
	19.25			  9.86000			  -0.20626			 -0.06120
	19.50			  10.16989			  -0.25155			 -0.11930
	19.75			  10.09060			  -0.00675			 -0.17216
	20.00			  9.83691			  -0.20119			 -0.07122
	20.25			  9.66567			  -0.30055			 0.00387
	20.50			  9.73200			  -0.29645			 -0.23202
	20.75			  9.53999			  -0.53247			 -0.23392
	21.00			  9.49138			  -0.62403			 -0.00997
	21.25			  9.59467			  -0.58401			 -0.08024
	21.50			  9.41694			  -0.55746			 -0.06866
	21.75			  9.53968			  -0.43896			 -0.08790
	22.00			  9.32783			  -0.55317			 -0.18316
	22.25			  9.33451			  -0.66073			 -0.01491
	22.50			  9.33725			  -0.75327			 0.11417
	22.75			  9.58597			  -0.68416			 0.17340
	23.00			  9.62516			  -0.68357			 0.30221
	23.25			  9.78020			  -0.49870			 -0.03776
	23.50			  9.76613			  -0.52096			 0.15926
	23.75			  9.67822			  -0.64590			 -0.10811
	24.00			  9.76491			  -0.54341			 -0.20625
	24.25			  10.15338			  -0.67049			 0.01405
	24.50			  10.27298			  -0.46864			 0.02816
	24.75			  10.22346			  -0.43018			 -0.09031
	25.00			  10.22529			  -0.62091			 -0.15327
	25.25			  10.21526			  -0.55941			 -0.03978
	25.50			  10.32058			  -0.43818			 -0.09408
	25.75			  10.09536			  -0.40968			 -0.31185
	26.00			  10.14852			  -0.59748			 -0.26603
	26.25			  10.21759			  -0.51920			 -0.31014
	26.50			  10.07287			  -0.34545			 -0.12128
	26.75			  10.02376			  -0.15863			 -0.02828
	27.00			  10.06265			  -0.25858			 0.23952
	27.25			  10.10781			  -0.30973			 0.08436
	27.50			  9.96664			  -0.28552			 -0.09602
	27.75			  9.99307			  -0.16390			 -0.02800
	28.00			  9.96938			  -0.14945			 -0.00818
	28.25			  9.75043			  -0.10651			 -0.00834
	28.50			  9.64237			  -0.16702			 -0.02598
	28.75			  9.95773			  -0.45029			 -0.14103
	29.00			  9.85656			  -0.59553			 0.14814
	29.25			  9.88643			  -0.65761			 0.14876
	29.50			  9.94072			  -0.25292			 0.05964
	29.75			  10.11672			  -0.22090			 0.05311
	30.00			  10.06933			  -0.18401			 0.07600
	30.25			  10.02669			  -0.31090			 0.34660
	30.50			  10.31643			  -0.70329			 0.24733
	30.75			  10.50489			  -0.75112			 0.02991
	31.00			  10.51644			  -0.47020			 0.04029
	31.25			  10.25496			  -0.45517			 -0.06613
	31.50			  10.08685			  -0.62481			 0.18635
	31.75			  10.15409			  -0.70544			 0.17854
	32.00			  10.31147			  -0.59826			 0.18133
	32.25			  10.19278			  -0.57698			 0.47322
	32.50			  10.15743			  -0.73980			 0.32390
	32.75			  9.94335			  -1.03340			 0.10010
	33.00			  9.96775			  -0.43194			 0.26260
	33.25			  10.13586			  -0.07254			 0.26910
	33.50			  9.99307			  -0.19455			 0.30687
	33.75			  10.18680			  -0.14692			 0.34928
	34.00			  10.35248			  -0.24941			 0.30866
	34.25			  10.41213			  -0.11353			 0.23314
	34.50			  10.46347			  -0.12232			 0.11748
	34.75			  10.40150			  0.08832			 0.02703
	35.00			  10.36828			  0.21229			 0.06947
	35.25			  10.24463			  0.14786			 0.17679
	35.50			  9.94244			  0.07075			 0.10679
	35.75			  10.12047			  0.08852			 0.17259
	36.00			  10.04432			  0.00789			 -0.11339
	36.25			  10.05383			  0.06841			 -0.25996
	36.50			  10.19004			  -0.07000			 -0.19634
	36.75			  10.22620			  -0.07273			 -0.01774
	37.00			  10.44646			  -0.02510			 0.05097
	37.25			  10.39218			  0.04537			 0.05638
	37.50			  10.51218			  0.01277			 0.15187
	37.75			  10.73670			  0.21072			 0.12537
	38.00			  10.45466			  0.19003			 0.20854
	38.25			  10.43238			  0.24801			 0.36067
	38.50			  10.47725			  0.21229			 0.12105
	38.75			  10.48656			  -0.00714			 0.05121
	39.00			  10.35785			  -0.06981			 0.09575
	39.25			  10.19622			  -0.21759			 0.03955
	39.50			  10.30012			  -0.18557			 0.09715
	39.75			  10.32372			  0.03483			 0.09711
	40.00			  10.11369			  0.12795			 0.14181
	40.25			  10.08422			  0.04303			 0.31667
	40.50			  10.19045			  -0.00265			 0.36968
	40.75			  10.08229			  -0.05907			 0.42390
	41.00			  10.13191			  0.19628			 0.34454
	41.25			  10.06862			  0.54435			 0.14942
	41.50			  10.21435			  0.42546			 0.29424
	41.75			  10.06619			  0.39735			 -0.04705
	42.00			  10.15693			  0.45904			 0.19875
	42.25			  10.21394			  0.36065			 0.40804
	42.50			  10.05961			  0.37549			 0.44850
	42.75			  9.99307			  0.27749			 0.32619
	43.00			  10.06427			  0.43347			 0.22506
	43.25			  10.18265			  0.44050			 0.07907
	43.50			  9.99652			  0.13927			 0.12770
	43.75			  10.20260			  -0.15492			 -0.01028
	44.00			  10.24068			  -0.30680			 0.04266
	44.25			  10.26195			  -0.40363			 0.07880
	44.50			  10.25810			  -0.28689			 0.15452
	44.75			  10.23005			  -0.02842			 -0.00157
	45.00			  10.20442			  -0.02198			 -0.03146
	45.25			  10.15014			  -0.00226			 0.02692
	45.50			  10.03905			  0.12385			 0.01226
	45.75			  9.83975			  -0.01202			 0.23058
	46.00			  9.94274			  0.17773			 0.30579
	46.25			  9.78668			  0.27690			 0.14468
	46.50			  9.54333			  0.37471			 0.17609
	46.75			  9.56136			  0.35538			 0.25378
	47.00			  9.63194			  0.40829			 0.16322
	47.25			  9.73149			  0.39423			 0.11308
	47.50			  9.65473			  0.41590			 0.13570
	47.75			  9.85727			  0.28471			 0.08005
	48.00			  9.76896			  0.17129			 0.01393
	48.25			  9.65503			  -0.04052			 0.05906
	48.50			  9.59751			  -0.05067			 -0.00573
	48.75			  9.51204			  -0.11763			 -0.00515
	49.00			  9.45735			  -0.05282			 0.16209
	49.25			  9.37147			  0.10570			 0.00838
	49.50			  9.24144			  0.05650			 -0.24648
	49.75			  9.60247			  0.09437			 0.03426
	50.00			  9.66972			  -0.04618			 -0.24146
	50.25			  9.45158			  -0.19494			 -0.31123
	50.50			  9.48135			  -0.04540			 -0.36098
	50.75			  9.46880			  0.00906			 -0.09404
	51.00			  9.67164			  0.16797			 -0.04841
	51.25			  9.68268			  0.36729			 -0.17885
	51.50			  9.69757			  0.15802			 -0.17784
	51.75			  9.80623			  0.14982			 0.01269
	52.00			  9.60045			  0.21111			 0.03655
	52.25			  9.57705			  0.15313			 0.10220
	52.50			  9.65594			  0.16641			 0.29926
	52.75			  9.76572			  0.08715			 0.08047
	53.00			  9.84846			  0.27905			 -0.19700
	53.25			  9.86142			  0.22595			 -0.39553
	53.50			  9.88866			  0.20213			 -0.23796
	53.75			  9.78294			  0.36534			 -0.18716
	54.00			  10.15166			  -0.11236			 -0.16171
	54.25			  10.08563			  -0.37025			 0.11398
	54.50			  10.19025			  -0.21095			 0.02031
	54.75			  10.29010			  -0.02588			 0.13178
	55.00			  10.08887			  -0.15746			 -0.09353
	55.25			  10.02953			  -0.06512			 -0.15965
	55.50			  10.00330			  -0.06668			 -0.20011
	55.75			  10.16604			  -0.11920			 -0.33871
	56.00			  10.14305			  -0.27108			 0.06563
	56.25			  10.07500			  -0.40519			 0.09901
	56.50			  10.21931			  -0.43330			 -0.06621
	56.75			  10.23420			  -0.56820			 0.06741
	57.00			  10.23967			  -0.58596			 0.01366
	57.25			  10.37557			  -0.32398			 0.09412
	57.50			  10.46763			  -0.28630			 -0.05377
	57.75			  10.51117			  -0.26112			 -0.15681
	58.00			  10.57123			  -0.38216			 -0.00154
	58.25			  10.66379			  -0.18264			 0.06753
	58.50			  10.65943			  -0.21856			 0.21954
	58.75			  10.69589			  -0.36673			 0.13524
	59.00			  10.79250			  -0.36127			 0.00721
	59.25			  10.69255			  -0.28201			 0.14639
	59.50			  10.83493			  -0.23379			 0.32452
	59.75			  10.89792			  -0.24218			 0.21118
	60.00			  10.60373			  -0.18381			 0.31033
	60.25			  10.48140			  -0.04814			 0.39650
	60.50			  10.44606			  -0.15043			 0.24803
	60.75			  10.34053			  -0.22696			 0.17523
	61.00			  10.28493			  -0.20099			 0.15965
	61.25			  10.48028			  -0.31598			 -0.01630
	61.50			  10.51441			  -0.21778			 -0.11577
	61.75			  10.51067			  -0.35092			 0.01199
	62.00			  10.48120			  -0.38469			 -0.00290
	62.25			  10.53700			  -0.22012			 0.01627
	62.50			  10.66196			  -0.08308			 -0.22354
	62.75			  10.76597			  -0.23574			 -0.17379
	63.00			  10.61133			  -0.09186			 -0.30163
	63.25			  10.35785			  -0.08523			 -0.08937
	63.50			  10.24675			  -0.25136			 -0.32417
	63.75			  10.17232			  -0.55200			 -0.41807
	64.00			  10.05080			  -0.36107			 -0.53953
	64.25			  10.20696			  -0.26366			 -0.62558
	64.50			  10.02376			  -0.42881			 -0.43871
	64.75			  10.31369			  -0.24140			 -0.36444
	65.00			  10.30154			  -0.39797			 -0.23691
	65.25			  10.25253			  -0.60822			 -0.18332
	65.50			  10.33800			  -0.72418			 -0.32293
	65.75			  10.32949			  -0.71305			 -0.24939
	66.00			  10.38671			  -0.54126			 -0.05059
	66.25			  10.48434			  -0.36693			 -0.13477
	66.50			  10.49548			  -0.47957			 -0.12521
	66.75			  10.32463			  -0.47840			 -0.15386
	67.00			  10.30053			  -0.41593			 -0.03224
	67.25			  10.41021			  -0.57406			 0.01883
	67.50			  10.49507			  -0.60197			 0.05000
	67.75			  10.60616			  -0.61037			 0.20119
	68.00			  10.76556			  -0.68221			 0.27819
	68.25			  10.80313			  -0.66190			 0.11098
	68.50			  10.65913			  -0.73589			 0.05898
	68.75			  10.51229			  -0.96137			 -0.06532
	69.00			  10.34256			  -0.76029			 -0.11320
	69.25			  10.44484			  -0.73980			 0.05218
	69.50			  10.30104			  -0.55844			 0.12711
	69.75			  10.47117			  -0.64297			 -0.18697
	70.00			  10.57052			  -0.76420			 -0.02734
	70.25			  10.55796			  -0.39192			 0.04872
	70.50			  10.36544			  -0.35287			 0.01525
	70.75			  10.53396			  -0.44404			 -0.19385
	71.00			  10.58267			  -0.63184			 -0.15720
	71.25			  10.53740			  -0.40090			 -0.23866
	71.50			  10.57690			  -0.33628			 -0.12136
	71.75			  10.49203			  -0.51647			 -0.19346
	72.00			  10.37668			  -0.46649			 -0.29094
	72.25			  10.20199			  -0.23613			 -0.08739
	72.50			  10.07004			  -0.26346			 -0.03702
	72.75			  10.03844			  -0.31812			 0.08405
	73.00			  10.03115			  -0.28572			 -0.13761
	73.25			  9.93798			  -0.23242			 -0.11437
	73.50			  9.93849			  -0.05692			 -0.02350
	73.75			  9.82476			  0.13927			 -0.08743
	74.00			  9.92866			  -0.01397			 -0.33350
	74.25			  9.93808			  -0.00031			 -0.28406
	74.50			  10.07156			  0.11507			 -0.08724
	74.75			  9.96684			  -0.06453			 -0.09248
	75.00			  9.99824			  -0.05145			 -0.05016
	75.25			  9.92958			  0.13029			 0.08028
	75.50			  9.75428			  0.34972			 -0.06038
	75.75			  9.78081			  0.33391			 -0.02369
	76.00			  9.80035			  0.28686			 0.15941
	76.25			  9.97930			  0.16407			 0.16342
	76.50			  10.04908			  0.06236			 0.10399
	76.75			  10.01201			  0.05728			 0.09886
	77.00			  10.09444			  0.10277			 -0.03780
	77.25			  10.28321			  -0.05321			 0.20108
	77.50			  10.33952			  -0.13598			 0.36125
	77.75			  10.40585			  -0.13657			 0.49841
	78.00			  10.47806			  -0.35912			 0.23944
	78.25			  10.32433			  -0.22520			 0.01199
	78.50			  10.33770			  -0.26795			 0.10321
	78.75			  10.37162			  -0.13657			 0.13994
	79.00			  10.32737			  -0.18128			 0.01623
	79.25			  10.26407			  -0.21407			 0.08708
	79.50			  10.04664			  0.09847			 0.15724
	79.75			  9.99378			  0.16016			 0.11215
	80.00			  10.05221			  0.13439			 -0.01930
	80.25			  9.94061			  0.22380			 -0.18662
	80.50			  10.01191			  0.18378			 -0.05828
	80.75			  10.17931			  0.35265			 -0.04312
	81.00			  10.18731			  0.27964			 -0.15568
	81.25			  10.24807			  0.14455			 -0.15786
	81.50			  10.09080			  0.10394			 -0.23975
	81.75			  10.10538			  -0.22344			 -0.20454
	82.00			  10.15146			  -0.28201			 0.04810
	82.25			  10.01201			  -0.29275			 0.00729
	82.50			  10.05181			  -0.11705			 -0.04246
	82.75			  9.94689			  -0.37708			 -0.25911
	83.00			  9.99895			  -0.34506			 0.19929
	83.25			  9.83853			  -0.50007			 -0.01086
	83.50			  9.89990			  -0.56234			 0.04328
	83.75			  10.09596			  -0.62872			 0.00577
	84.00			  10.18255			  -0.67381			 0.06924
	84.25			  10.33932			  -0.83428			 0.12474
	84.50			  10.21060			  -0.53696			 -0.12972
	84.75			  10.23025			  -0.56293			 -0.03881
	85.00			  10.12098			  -0.92467			 -0.06434
	85.25			  9.88228			  -0.78021			 -0.10904
	85.50			  9.96907			  -0.58382			 0.13920
	85.75			  10.00543			  -0.43116			 0.19397
	86.00			  10.03287			  -0.64160			 -0.02602
	86.25			  10.06092			  -0.51998			 -0.14962
	86.50			  10.16250			  -0.41105			 -0.23812
	86.75			  10.16432			  -0.40558			 -0.32852
	87.00			  10.04178			  -0.08093			 -0.38123
	87.25			  9.95196			  0.06255			 -0.14612
	87.50			  10.19187			  -0.18108			 -0.19645
	87.75			  10.10133			  -0.17073			 -0.21604
	88.00			  10.20847			  -0.32671			 0.10729
	88.25			  10.23602			  -0.27108			 0.18363
	88.50			  10.12452			  -0.18577			 -0.02074
	88.75			  10.00644			  -0.15726			 0.01720
	89.00			  10.07561			  -0.10983			 -0.13256
	89.25			  10.06892			  -0.20021			 -0.01300
	89.50			  10.03520			  -0.00245			 0.07340
	89.75			  10.07642			  -0.10709			 0.01378
	90.00			  9.86689			  -0.13637			 0.09781
	90.25			  9.91661			  -0.27810			 0.02804
	90.50			  9.84228			  -0.47586			 0.05230
	90.75			  9.74081			  -0.68357			 0.19416
	91.00			  9.73635			  -0.49890			 0.21639
	91.25			  9.69311			  -0.45497			 0.17873
	91.50			  9.73250			  -0.52193			 -0.00597
	91.75			  9.91206			  -0.76342			 0.09415
	92.00			  9.69139			  -0.89343			 -0.06061
	92.25			  9.55569			  -0.72242			 0.03302
	92.50			  9.58050			  -0.63106			 -0.02552
	92.75			  9.61290			  -0.62306			 -0.00251
	93.00			  9.48216			  -0.69704			 0.20640
	93.25			  9.48034			  -1.21730			 0.10857
	93.50			  9.64389			  -0.99827			 -0.06815
	93.75			  9.64855			  -0.99885			 0.10107
	94.00			  9.71569			  -1.08553			 -0.00810
	94.25			  9.75195			  -0.89929			 -0.02544
	94.50			  9.71650			  -0.58167			 0.23559
	94.75			  9.74314			  -0.74038			 -0.01494
	95.00			  9.83620			  -0.53872			 -0.32965
	95.25			  9.83094			  -0.49772			 -0.22572
	95.50			  9.79357			  -0.23867			 -0.22187
	95.75			  9.69888			  -0.20665			 -0.07262
	96.00			  9.89332			  -0.34663			 0.04569
	96.25			  9.78061			  -0.43857			 0.26058
	96.50			  9.59143			  -0.55219			 0.10512
	96.75			  9.51538			  -0.38899			 -0.17096
	97.00			  9.45168			  -0.24062			 -0.18180
	97.25			  9.44287			  -0.10143			 -0.09163
	97.50			  9.19942			  -0.17151			 -0.09050
	97.75			  9.25805			  -0.19006			 0.09338
	98.00			  9.51558			  -0.36576			 0.06411
	98.25			  9.46404			  -0.42569			 0.12840
	98.50			  9.60652			  -0.51217			 0.23792
	98.75			  9.56642			  -0.65117			 0.13625
	99.00			  9.60683			  -0.37786			 0.14488
	99.25			  9.63964			  -0.19260			 0.27493
	99.50			  9.59184			  0.02741			 0.20873
	99.75			  9.67002			  0.06841			 0.25627
	100.00			  9.63235			  0.22595			 0.32732
	100.25			  9.72724			  0.33117			 0.36482
	100.50			  9.61280			  0.16641			 0.20823
	100.75			  9.58516			  -0.01846			 0.39868
	101.00			  9.81868			  -0.07078			 0.33999
	101.25			  10.00249			  0.04166			 0.09987
	101.50			  9.94153			  -0.09069			 -0.04483
	101.75			  9.97413			  -0.18206			 -0.05000
	102.00			  10.10882			  0.03288			 -0.16136
	102.25			  9.98446			  0.23337			 -0.38379
	102.50			  9.82820			  0.38174			 -0.40155
	102.75			  9.65878			  0.37217			 -0.29965
	103.00			  9.70141			  0.29174			 -0.35340
	103.25			  9.93717			  -0.03174			 -0.25118
	103.50			  9.82567			  -0.34057			 -0.17873
	103.75			  9.67843			  -0.45751			 0.04029
	104.00			  9.65280			  -0.22266			 0.12657
	104.25			  9.59032			  -0.23711			 0.02594
	104.50			  9.57402			  -0.23984			 -0.21554
	104.75			  9.67559			  -0.16234			 -0.32802
	105.00			  9.80522			  -0.35268			 -0.22817
	105.25			  9.57533			  -0.41612			 -0.11549
	105.50			  9.43436			  -0.51295			 0.16423
	105.75			  9.36256			  -0.58538			 0.12159
	106.00			  9.41907			  -0.34370			 0.08906
	106.25			  9.47781			  -0.43350			 0.13073
	106.50			  9.56014			  -0.51529			 -0.00733
	106.75			  9.48267			  -0.55746			 -0.19910
	107.00			  9.40186			  -0.66425			 -0.09614
	107.25			  9.42049			  -0.54263			 0.10990
	107.50			  9.42819			  -0.30875			 -0.22506
	107.75			  9.25066			  -0.23457			 -0.21216
	108.00			  9.23273			  -0.26990			 -0.20730
	108.25			  9.01318			  -0.33940			 0.00768
	108.50			  9.30221			  -0.39972			 -0.09528
	108.75			  9.49270			  -0.44209			 -0.15246
	109.00			  9.60622			  -0.42803			 -0.18510
	109.25			  9.73504			  -0.53052			 -0.22891
	109.50			  9.58455			  -0.42979			 -0.03586
	109.75			  9.62992			  -0.58518			 0.07239
	110.00			  9.95064			  -0.47137			 -0.06493
	110.25			  9.84208			  -0.47664			 -0.04157
	110.50			  9.88117			  -0.50280			 -0.06543
	110.75			  9.70779			  -0.41573			 -0.00352
	111.00			  9.85646			  -0.73628			 0.03065
	111.25			  9.99966			  -0.45868			 0.09276
	111.50			  9.96431			  -0.42315			 -0.20065
	111.75			  9.81008			  -0.51315			 -0.11483
	112.00			  9.84593			  -0.53013			 -0.06936
	112.25			  10.10923			  -0.60685			 0.24749
	112.50			  10.17435			  -0.38743			 0.24235
	112.75			  10.10538			  -0.10045			 0.12062
	113.00			  10.26802			  -0.07176			 0.26167
	113.25			  10.27339			  0.09691			 0.26606
	113.50			  10.22559			  0.19003			 0.41827
	113.75			  10.06639			  0.15216			 0.38010
	114.00			  10.17374			  0.10179			 0.27314
	114.25			  10.23005			  -0.11100			 0.02649
	114.50			  10.40352			  0.10472			 -0.06664
	114.75			  10.31359			  -0.06785			 -0.16112
	115.00			  10.41780			  0.06782			 -0.08747
	115.25			  10.19014			  -0.08269			 0.01086
	115.50			  10.05353			  -0.23008			 0.04289
	115.75			  10.11014			  -0.03857			 -0.06466
	116.00			  10.09181			  -0.15180			 -0.20419
	116.25			  10.05890			  -0.29938			 0.07861
	116.50			  10.25800			  -0.15531			 0.15805
	116.75			  10.26377			  -0.19221			 -0.16272
	117.00			  10.12827			  -0.20900			 0.05191
	117.25			  9.96958			  -0.32535			 0.02151
	117.50			  10.09384			  -0.09714			 -0.12467
	117.75			  10.19906			  -0.01983			 0.21099
	118.00			  10.06457			  -0.08601			 0.03721
	118.25			  9.99226			  -0.13637			 -0.16703
	118.50			  9.93413			  -0.22559			 -0.12941
	118.75			  10.05171			  -0.05204			 -0.33649
	119.00			  10.16584			  -0.00128			 -0.22187
	119.25			  9.97565			  0.08227			 -0.30388
	119.50			  9.87256			  0.05865			 -0.45690
	119.75			  10.08705			  0.01472			 -0.34345
	120.00			  10.28210			  0.09242			 -0.14709
	120.25			  10.55563			  0.18925			 -0.25670
	120.50			  10.52474			  0.21814			 -0.23761
	120.75			  10.55067			  0.22966			 -0.06415
	121.00			  10.53720			  0.06802			 0.18013
	121.25			  10.45031			  0.12951			 0.10710
	121.50			  10.40808			  0.09184			 -0.02400
	121.75			  10.50915			  0.00535			 0.03488
	122.00			  10.29476			  0.29935			 0.07565
	122.25			  10.34580			  0.16348			 0.30334
	122.50			  10.17192			  0.06080			 0.26871
	122.75			  10.20351			  0.05748			 0.30959
	123.00			  10.17526			  0.08481			 0.33470
	123.25			  10.08827			  -0.09206			 -0.10694
	123.50			  9.95368			  -0.00031			 -0.21087
	123.75			  9.93383			  -0.01456			 -0.26082
	124.00			  10.00097			  -0.14653			 -0.14220
	124.25			  10.28858			  -0.14692			 -0.09505
	124.50			  10.22093			  -0.10612			 -0.28010
	124.75			  10.00138			  -0.06336			 -0.14527
	125.00			  9.97646			  0.01960			 -0.03955
	125.25			  9.86790			  -0.11295			 0.05066
	125.50			  9.89798			  -0.20509			 0.00274
	125.75			  9.92208			  -0.24745			 -0.11441
	126.00			  9.89626			  -0.49538			 -0.21647
	126.25			  9.90942			  -0.44775			 -0.20874
	126.50			  9.77200			  -0.50202			 -0.12591
	126.75			  9.68653			  -0.65527			 -0.13885
	127.00			  9.64663			  -0.54380			 0.02520
	127.25			  9.77919			  -0.39758			 0.08397
	127.50			  9.63579			  -0.29567			 0.00375
	127.75			  9.66607			  -0.42510			 -0.21970
	128.00			  9.71762			  -0.56117			 -0.27073
	128.25			  9.74729			  -0.51998			 -0.00461
	128.50			  9.82324			  -0.42862			 -0.00332
	128.75			  9.80299			  -0.18596			 -0.14515
	129.00			  10.03480			  -0.28708			 -0.14130
	129.25			  10.05657			  -0.29958			 -0.00740
	129.50			  10.01312			  0.13478			 0.05886
	129.75			  9.71245			  0.00613			 0.11196
	130.00			  9.54515			  -0.12837			 -0.00655
	130.25			  9.62364			  -0.19611			 0.25518
	130.50			  9.63883			  -0.38645			 0.09221
	130.75			  9.65473			  -0.48640			 -0.00375
	131.00			  9.50151			  -0.44521			 -0.01630
	131.25			  9.46505			  -0.36595			 -0.09528
	131.50			  9.59184			  -0.37903			 -0.17990
	131.75			  9.78952			  -0.24140			 -0.04818
	132.00			  9.98659			  -0.52974			 -0.02843
	132.25			  9.97910			  -0.41007			 -0.11728
	132.50			  10.09049			  -0.31051			 -0.02482
	132.75			  9.92684			  -0.31090			 -0.02408
	133.00			  9.98700			  -0.34428			 0.03201
	133.25			  9.95692			  -0.23320			 0.04378
	133.50			  9.73888			  -0.33843			 0.11188
	133.75			  9.81311			  -0.45634			 0.18518
	134.00			  9.73878			  -0.36244			 0.26952
	134.25			  9.82415			  -0.38762			 0.04884
	134.50			  9.92917			  -0.37454			 -0.12416
	134.75			  10.11956			  -0.44892			 -0.11615
	135.00			  9.87398			  -0.55278			 -0.05323
	135.25			  9.92390			  -0.67557			 0.03694
	135.50			  9.95682			  -0.67225			 -0.11281
	135.75			  10.03328			  -0.57074			 0.08152
	136.00			  9.97251			  -0.67811			 -0.05381
	136.25			  10.07723			  -0.55629			 -0.11759
	136.50			  10.03480			  -0.70817			 -0.03446
	136.75			  9.78121			  -0.79036			 0.07321
	137.00			  9.81828			  -0.93013			 0.24473
	137.25			  9.87702			  -0.98987			 0.17298
	137.50			  9.82922			  -0.66171			 -0.11627
	137.75			  9.69574			  -0.45731			 -0.00880
	138.00			  9.78608			  -0.54048			 0.02369
	138.25			  9.81808			  -0.52584			 0.02120
	138.50			  9.84329			  -0.51159			 0.15176
	138.75			  9.78587			  -0.49675			 0.19688
	139.00			  9.69210			  -0.23711			 0.05311
	139.25			  9.78304			  -0.22071			 0.24993
	139.50			  9.98133			  -0.27186			 0.55422
	139.75			  9.91104			  -0.27459			 0.35783
	140.00			  9.90507			  -0.37767			 0.25417
	140.25			  9.96006			  -0.43447			 0.31371
	140.50			  9.99743			  -0.48230			 0.22595
	140.75			  10.04320			  -0.69041			 0.04884
	141.00			  10.01657			  -0.80188			 0.18091
	141.25			  10.07966			  -0.78411			 0.05925
	141.50			  10.01636			  -0.59104			 0.12789
	141.75			  10.08533			  -0.50749			 0.13757
	142.00			  10.15824			  -0.31168			 -0.01988
	142.25			  10.23167			  -0.29353			 -0.20221
	142.50			  10.20898			  -0.19299			 -0.47532
	142.75			  10.05211			  -0.53130			 -0.51718
	143.00			  10.19359			  -0.76361			 -0.49266
	143.25			  10.23521			  -0.66405			 -0.27003
	143.50			  10.11095			  -0.64921			 -0.26894
	143.75			  10.39056			  -0.60861			 -0.41920
	144.00			  10.37436			  -0.43740			 -0.10714
	144.25			  10.26235			  -0.53657			 -0.03854
	144.50			  10.54034			  -0.65468			 0.05272
	144.75			  10.71989			  -0.58616			 0.11332
	145.00			  10.68060			  -0.53247			 -0.15658
	145.25			  10.55603			  -0.36927			 -0.07204
	145.50			  10.57457			  -0.36869			 0.04631
	145.75			  10.74187			  -0.51393			 -0.01887
	146.00			  10.47947			  -0.30953			 -0.06361
	146.25			  10.31521			  -0.29645			 -0.20854
	146.50			  10.31126			  -0.39328			 -0.04662
	146.75			  10.41385			  -0.31793			 0.05105
	147.00			  10.11358			  -0.33374			 0.16443
	147.25			  9.93363			  -0.11275			 -0.10671
	147.50			  10.00036			  -0.24824			 -0.23738
	147.75			  9.94203			  -0.25682			 -0.03586
	148.00			  10.19389			  -0.13598			 -0.30066
	148.25			  10.27379			  -0.11275			 -0.25102
	148.50			  10.15561			  -0.35717			 -0.41162
	148.75			  10.16878			  -0.25507			 -0.39436
	149.00			  10.05444			  -0.37044			 -0.28111
	149.25			  10.12260			  -0.49128			 -0.43389
	149.50			  9.98902			  -0.46864			 -0.41232
	149.75			  10.08098			  -0.50007			 -0.38616
	150.00			  10.18579			  -0.39406			 -0.23038
	150.25			  10.19592			  -0.68904			 -0.09544
	150.50			  10.16857			  -0.61427			 -0.16140
	150.75			  10.15176			  -0.52779			 0.09548
	151.00			  10.27258			  -0.50456			 0.07919
	151.25			  10.21870			  -0.60744			 0.12424
	151.50			  10.21820			  -0.70758			 -0.20123
	151.75			  10.19045			  -0.93033			 -0.11118
	152.00			  10.05029			  -0.86396			 -0.10694
	152.25			  10.06487			  -0.80227			 -0.14332
	152.50			  10.27116			  -0.78860			 0.09264
	152.75			  10.16766			  -0.74780			 0.05043
	153.00			  10.35177			  -0.73823			 0.37994
	153.25			  10.30255			  -0.57952			 0.28130
	153.50			  10.18812			  -0.73218			 0.14802
	153.75			  10.29881			  -0.42530			 0.17461
	154.00			  10.31805			  -0.56898			 0.17088
	154.25			  10.09606			  -0.59026			 0.21480
	154.50			  10.11622			  -0.66054			 0.27524
	154.75			  10.16787			  -0.48094			 0.18576
	155.00			  10.12432			  -0.55902			 0.13679
	155.25			  10.09596			  -0.66366			 0.30746
	155.50			  9.88167			  -0.56234			 0.30132
	155.75			  9.77321			  -0.48152			 0.50587
	156.00			  9.88249			  -0.62501			 0.41994
	156.25			  9.86770			  -0.66913			 0.45270
	156.50			  9.83124			  -0.81886			 0.13306
	156.75			  9.83995			  -0.81261			 0.03667
	157.00			  9.79813			  -0.85966			 0.43331
	157.25			  9.78749			  -0.92838			 0.20594
	157.50			  9.63376			  -1.03438			 0.05268
	157.75			  9.79154			  -1.07440			 0.16956
	158.00			  9.79590			  -0.98265			 0.04258
	158.25			  9.83428			  -0.71696			 -0.00663
	158.50			  9.82729			  -0.83584			 0.11969
	158.75			  9.82263			  -0.83038			 0.11324
	159.00			  9.97039			  -0.59182			 0.33972
	159.25			  10.01596			  -0.63184			 0.25013
	159.50			  9.93272			  -0.53033			 0.26750
	159.75			  9.84107			  -0.64570			 0.22762
	160.00			  9.65382			  -0.75463			 0.07060
	160.25			  9.68298			  -0.61388			 0.03539
	160.50			  9.67660			  -0.77142			 0.18262
	160.75			  9.71073			  -0.94419			 0.23785
	161.00			  9.77939			  -0.92682			 0.27974
	161.25			  9.72815			  -1.14429			 0.21740
	161.50			  9.81646			  -1.09666			 0.22448
	161.75			  9.72714			  -1.13101			 0.15805
	162.00			  9.60845			  -1.33346			 0.11036
	162.25			  9.73433			  -1.22940			 -0.03916
	162.50			  9.65908			  -1.10232			 0.04996
	162.75			  9.68865			  -0.97972			 -0.03710
	163.00			  9.65868			  -0.93853			 -0.06539
	163.25			  9.69959			  -0.98109			 0.14732
	163.50			  9.65098			  -0.71676			 0.39856
	163.75			  9.68086			  -0.95239			 0.23684
	164.00			  9.75863			  -0.81808			 0.38826
	164.25			  9.93312			  -0.86376			 0.19474
	164.50			  9.81555			  -0.88172			 0.36280
	164.75			  9.66607			  -0.92799			 0.29751
	165.00			  9.74101			  -0.60217			 0.15230
	165.25			  9.81949			  -0.44502			 0.27823
	165.50			  9.99429			  -0.68904			 0.29751