--------------TurbSim v2.00.* User Time Series Input File-----------------------
     Time series input from low-res turbsim run
--------------------------------------------------------------------------------
          3 nComp - Number of velocity components in the file
          1 nPoints - Number of time series points contained in this file (-)
          1 RefPtID - Index of the reference point (1-nPoints)
     Pointyi Pointzi ! nPoints listed in order of increasing height
       (m)     (m)
       -1.55883   94.00000
--------Time Series-------------------------------------------------------------
Elapsed Time         Point01u             Point01v           Point01w
         (s)            (m/s)                (m/s)              (m/s)
	0.00			  9.59497			  -0.32171			 -0.01645
	0.25			  9.57488			  -0.36355			 -0.03607
	0.50			  9.63233			  -0.44103			 -0.05832
	0.75			  9.52305			  -0.20988			 0.06608
	1.00			  9.25038			  -0.11231			 -0.01869
	1.25			  9.24214			  0.22207			 -0.04351
	1.50			  9.32230			  0.08064			 -0.23176
	1.75			  9.47280			  -0.03977			 -0.27176
	2.00			  9.49446			  -0.00396			 -0.30608
	2.25			  9.55208			  0.01852			 -0.18819
	2.50			  9.53971			  0.02107			 -0.11184
	2.75			  9.55690			  -0.14922			 0.07898
	3.00			  9.51595			  0.12285			 -0.07514
	3.25			  9.64671			  0.11645			 -0.14763
	3.50			  9.73819			  -0.08216			 -0.14509
	3.75			  9.66802			  -0.19216			 -0.22636
	4.00			  9.61628			  -0.17955			 -0.29458
	4.25			  9.60374			  -0.16183			 -0.19774
	4.50			  9.59049			  -0.30526			 -0.26943
	4.75			  9.61567			  -0.29923			 -0.22227
	5.00			  9.71100			  -0.25502			 -0.20775
	5.25			  9.63514			  -0.22395			 -0.05459
	5.50			  9.56506			  -0.22066			 -0.13481
	5.75			  9.59497			  -0.06060			 -0.08434
	6.00			  9.44464			  -0.08198			 -0.28218
	6.25			  9.30862			  -0.10244			 -0.28108
	6.50			  9.42658			  -0.14849			 -0.24676
	6.75			  9.55112			  -0.16859			 -0.13490
	7.00			  9.39176			  -0.01072			 -0.27092
	7.25			  9.43868			  -0.05384			 -0.11187
	7.50			  9.55410			  0.07626			 -0.02559
	7.75			  9.53831			  0.02400			 -0.16265
	8.00			  9.49288			  0.16140			 -0.06734
	8.25			  9.56681			  0.27359			 -0.10133
	8.50			  9.44122			  0.06328			 0.07462
	8.75			  9.41377			  -0.07102			 -0.05023
	9.00			  9.32782			  -0.02113			 -0.18875
	9.25			  9.22196			  0.03441			 -0.07971
	9.50			  9.17425			  0.07936			 -0.14267
	9.75			  9.27967			  0.11408			 -0.10838
	10.00			  9.34308			  0.31580			 -0.07048
	10.25			  9.43280			  0.33755			 -0.06086
	10.50			  9.47166			  0.22097			 -0.16710
	10.75			  9.45026			  0.10841			 -0.43176
	11.00			  9.58269			  0.08192			 -0.41438
	11.25			  9.58769			  0.08210			 -0.21602
	11.50			  9.60497			  0.03386			 -0.38260
	11.75			  9.58506			  0.15172			 -0.20593
	12.00			  9.80256			  0.08722			 -0.19270
	12.25			  9.69048			  0.03971			 -0.30010
	12.50			  9.73433			  0.18607			 -0.28908
	12.75			  9.68171			  0.30977			 -0.14852
	13.00			  9.68679			  0.27670			 -0.18484
	13.25			  9.52051			  0.10604			 -0.19111
	13.50			  9.33493			  -0.04562			 -0.17964
	13.75			  9.26380			  -0.04434			 -0.09300
	14.00			  9.33966			  -0.24789			 0.03107
	14.25			  9.39255			  -0.16055			 -0.17579
	14.50			  9.26775			  -0.00706			 -0.01719
	14.75			  9.11348			  0.24107			 0.13755
	15.00			  9.30537			  0.21732			 0.11823
	15.25			  9.33177			  -0.03100			 0.04995
	15.50			  9.31309			  -0.18540			 0.16423
	15.75			  9.32756			  -0.18741			 0.29800
	16.00			  9.31397			  -0.05969			 0.26936
	16.25			  9.36176			  -0.13131			 0.22623
	16.50			  9.38176			  0.02765			 0.13824
	16.75			  9.41789			  -0.08490			 0.25437
	17.00			  9.47797			  -0.14301			 0.19114
	17.25			  9.44947			  -0.21591			 0.25362
	17.50			  9.36483			  -0.10043			 0.45356
	17.75			  9.42491			  -0.15196			 0.44248
	18.00			  9.24310			  -0.20806			 0.56257
	18.25			  9.20644			  -0.19965			 0.41347
	18.50			  9.41816			  -0.25940			 0.37503
	18.75			  9.55296			  -0.25922			 0.22336
	19.00			  9.67197			  -0.21829			 0.07292
	19.25			  9.67337			  -0.27621			 0.30535
	19.50			  9.54156			  -0.32226			 0.36586
	19.75			  9.34571			  -0.45016			 0.66365
	20.00			  9.35440			  -0.32756			 0.43534
	20.25			  9.58795			  -0.10555			 0.38928
	20.50			  9.54445			  -0.19929			 0.53584
	20.75			  9.63040			  -0.23528			 0.65833
	21.00			  9.67890			  -0.18083			 0.52864
	21.25			  9.72845			  -0.20130			 0.51270
	21.50			  9.82124			  -0.20787			 0.32862
	21.75			  9.93736			  -0.24424			 0.25311
	22.00			  9.82800			  -0.26835			 0.27390
	22.25			  9.81046			  -0.29101			 0.13678
	22.50			  9.75932			  -0.52654			 0.09634
	22.75			  9.80397			  -0.34711			 0.18902
	23.00			  9.83633			  -0.22743			 0.20936
	23.25			  9.97692			  -0.35332			 0.27232
	23.50			  9.98428			  -0.22669			 -0.02762
	23.75			  9.94929			  -0.38566			 -0.16274
	24.00			  9.81870			  -0.37963			 -0.09270
	24.25			  9.73275			  -0.34857			 0.08499
	24.50			  9.82019			  -0.32810			 0.02567
	24.75			  9.77204			  -0.27713			 0.03296
	25.00			  9.64040			  -0.26982			 0.00554
	25.25			  9.70793			  -0.29375			 0.03824
	25.50			  9.73117			  -0.30618			 0.03436
	25.75			  9.64391			  -0.29521			 0.08591
	26.00			  9.64031			  -0.26909			 0.19505
	26.25			  9.67557			  -0.18503			 0.14851
	26.50			  9.80651			  -0.12455			 0.20365
	26.75			  9.88483			  -0.17718			 0.22563
	27.00			  9.84133			  -0.21372			 -0.02347
	27.25			  9.76581			  -0.18686			 0.09726
	27.50			  9.72793			  0.08229			 0.10016
	27.75			  9.93947			  0.17017			 0.01692
	28.00			  9.88351			  0.17803			 -0.01555
	28.25			  9.87115			  0.09508			 -0.05904
	28.50			  9.86948			  -0.12638			 -0.03473
	28.75			  10.05813			  -0.23327			 -0.15145
	29.00			  10.06181			  -0.00633			 -0.22080
	29.25			  9.90079			  -0.05530			 -0.12645
	29.50			  9.96543			  -0.19636			 -0.26429
	29.75			  9.78002			  -0.12985			 -0.34547
	30.00			  9.75625			  -0.20020			 -0.23580
	30.25			  9.76976			  -0.06828			 -0.26307
	30.50			  10.05462			  -0.20477			 -0.24216
	30.75			  10.07164			  -0.12894			 -0.37824
	31.00			  10.08953			  -0.04763			 -0.60192
	31.25			  9.99761			  -0.26032			 -0.56327
	31.50			  10.14040			  -0.41088			 -0.34287
	31.75			  10.19407			  -0.27365			 -0.12693
	32.00			  10.26616			  -0.29923			 -0.12994
	32.25			  10.29011			  -0.40540			 0.03066
	32.50			  10.19916			  -0.24771			 -0.06582
	32.75			  10.21135			  -0.27237			 0.02447
	33.00			  10.33633			  -0.28590			 -0.06806
	33.25			  10.25687			  -0.10720			 -0.27612
	33.50			  10.31414			  -0.00926			 -0.33681
	33.75			  10.13654			  -0.17718			 -0.30321
	34.00			  10.03278			  -0.21208			 -0.32845
	34.25			  10.05024			  0.01413			 -0.27678
	34.50			  10.07234			  0.00646			 -0.29284
	34.75			  9.92631			  -0.05439			 -0.29604
	35.00			  9.78011			  -0.25520			 -0.30076
	35.25			  9.79063			  -0.37196			 -0.31719
	35.50			  9.87299			  -0.40357			 -0.24350
	35.75			  9.91202			  -0.43902			 -0.30351
	36.00			  10.03884			  -0.23620			 -0.14577
	36.25			  10.06787			  -0.04251			 -0.10106
	36.50			  9.99349			  0.01340			 -0.14374
	36.75			  10.05769			  -0.00889			 -0.10668
	37.00			  9.89939			  -0.23017			 -0.13661
	37.25			  10.03050			  -0.16165			 0.02143
	37.50			  9.91482			  -0.11323			 0.23752
	37.75			  9.86027			  -0.26561			 0.19603
	38.00			  9.92535			  -0.32591			 0.10237
	38.25			  10.07558			  -0.40832			 0.08263
	38.50			  10.06795			  -0.25630			 0.06258
	38.75			  9.85720			  -0.16658			 -0.04022
	39.00			  9.86027			  -0.29558			 -0.07131
	39.25			  10.05410			  -0.25502			 0.02755
	39.50			  9.95359			  -0.06188			 -0.19999
	39.75			  9.96920			  0.01578			 -0.17481
	40.00			  9.94341			  0.24235			 0.01420
	40.25			  10.00796			  0.29881			 0.10834
	40.50			  10.10146			  0.37171			 0.07310
	40.75			  9.95183			  0.21019			 0.13340
	41.00			  9.99209			  0.14880			 0.16100
	41.25			  9.94526			  0.32019			 0.14344
	41.50			  9.91789			  0.27889			 0.23137
	41.75			  10.07742			  0.46234			 0.15070
	42.00			  10.15206			  0.42763			 0.18230
	42.25			  10.20495			  0.19886			 0.02238
	42.50			  10.32729			  0.11371			 -0.07218
	42.75			  10.37500			  0.17767			 -0.00799
	43.00			  10.38298			  0.14478			 0.19762
	43.25			  10.40052			  0.08758			 0.18946
	43.50			  10.25090			  0.10001			 0.07116
	43.75			  10.38202			  0.28748			 -0.02815
	44.00			  10.33861			  0.19813			 0.06172
	44.25			  10.26520			  0.27853			 0.06444
	44.50			  10.22670			  0.29095			 0.06500
	44.75			  10.35650			  0.39748			 -0.01161
	45.00			  10.22196			  0.23175			 0.08988
	45.25			  10.24020			  0.29954			 0.11545
	45.50			  10.16539			  0.34193			 -0.03664
	45.75			  10.20161			  0.31434			 -0.03329
	46.00			  10.08006			  0.40205			 -0.10241
	46.25			  10.01130			  0.38907			 0.03944
	46.50			  10.04918			  0.40808			 0.01889
	46.75			  10.01621			  0.38505			 -0.15402
	47.00			  10.06208			  0.31050			 -0.15677
	47.25			  10.03866			  0.21183			 0.14123
	47.50			  10.28362			  0.35088			 0.17946
	47.75			  10.22529			  0.23358			 0.24224
	48.00			  10.10496			  0.27396			 0.22336
	48.25			  10.13470			  0.25550			 0.04923
	48.50			  10.22977			  0.13491			 -0.01621
	48.75			  10.19846			  -0.07211			 0.07815
	49.00			  10.25827			  0.01760			 -0.10653
	49.25			  10.21977			  0.18022			 -0.06803
	49.50			  10.23564			  -0.05695			 -0.08676
	49.75			  10.30098			  0.12522			 -0.11862
	50.00			  10.14969			  0.19996			 -0.12072
	50.25			  10.09242			  0.22682			 -0.02571
	50.50			  10.09795			  0.15647			 -0.10073
	50.75			  9.88193			  -0.03082			 -0.02741
	51.00			  9.95034			  -0.07376			 0.06163
	51.25			  9.89570			  -0.09934			 -0.07006
	51.50			  9.80326			  -0.04324			 -0.04330
	51.75			  9.82431			  0.04428			 0.01055
	52.00			  9.82931			  -0.04178			 0.00031
	52.25			  9.94526			  -0.20824			 -0.06821
	52.50			  10.09593			  -0.44632			 -0.03714
	52.75			  10.06252			  -0.42294			 0.01480
	53.00			  10.02243			  -0.22761			 0.02205
	53.25			  10.28704			  -0.33779			 0.13436
	53.50			  10.29335			  -0.20258			 0.23391
	53.75			  10.16636			  -0.24844			 0.40150
	54.00			  10.28037			  -0.01620			 0.31419
	54.25			  10.28090			  -0.09002			 0.31936
	54.50			  10.30809			  -0.03429			 0.29594
	54.75			  10.22775			  -0.08691			 0.08319
	55.00			  10.28142			  -0.13058			 0.12880
	55.25			  10.19100			  -0.03374			 0.11682
	55.50			  10.14136			  -0.13095			 0.00401
	55.75			  10.02945			  -0.11615			 -0.01767
	56.00			  10.07962			  -0.26013			 0.04478
	56.25			  10.14180			  -0.47501			 0.00016
	56.50			  10.07067			  -0.57149			 -0.14443
	56.75			  10.05708			  -0.52599			 0.05383
	57.00			  10.17741			  -0.39315			 0.12331
	57.25			  10.11952			  -0.33779			 -0.02188
	57.50			  10.06813			  -0.42312			 -0.10055
	57.75			  10.17153			  -0.35771			 0.05058
	58.00			  10.25844			  -0.42750			 0.03212
	58.25			  10.15925			  -0.31769			 0.04622
	58.50			  10.13443			  -0.12492			 -0.12281
	58.75			  10.08277			  -0.19801			 -0.21707
	59.00			  10.03322			  -0.20879			 -0.14389
	59.25			  9.98542			  -0.07814			 -0.24383
	59.50			  10.16530			  -0.09623			 -0.37277
	59.75			  10.13645			  -0.13040			 -0.31590
	60.00			  10.05252			  -0.20111			 -0.19685
	60.25			  9.97306			  -0.05329			 -0.17711
	60.50			  9.98095			  0.01870			 -0.08096
	60.75			  10.05576			  0.01559			 -0.07164
	61.00			  9.97841			  -0.04471			 -0.00578
	61.25			  9.93175			  0.05104			 -0.07645
	61.50			  9.94517			  -0.02515			 -0.09805
	61.75			  10.07900			  -0.05695			 -0.15996
	62.00			  10.03173			  -0.11779			 -0.20076
	62.25			  10.01559			  0.03039			 0.00085
	62.50			  10.11619			  -0.27731			 -0.12747
	62.75			  10.00261			  -0.32098			 -0.13669
	63.00			  9.95166			  -0.03118			 -0.09488
	63.25			  10.02743			  0.06767			 -0.13634
	63.50			  10.11908			  0.11682			 -0.25781
	63.75			  10.34089			  -0.03995			 -0.09374
	64.00			  10.35974			  0.02911			 0.08015
	64.25			  10.19696			  -0.00834			 0.06805
	64.50			  10.06067			  0.03222			 -0.05862
	64.75			  10.19732			  -0.12656			 -0.19930
	65.00			  10.16101			  -0.12236			 -0.24485
	65.25			  10.08321			  0.04976			 -0.16913
	65.50			  10.25160			  0.12157			 -0.16671
	65.75			  10.45385			  0.12413			 -0.16175
	66.00			  10.42964			  0.17566			 -0.05961
	66.25			  10.40807			  0.09307			 -0.20554
	66.50			  10.46060			  0.24363			 -0.30363
	66.75			  10.46657			  0.03076			 -0.22714
	67.00			  10.54909			  -0.17736			 -0.19064
	67.25			  10.63513			  -0.07029			 -0.19745
	67.50			  10.70065			  -0.14082			 -0.29135
	67.75			  10.60601			  -0.09495			 -0.34311
	68.00			  10.49980			  0.08028			 -0.26540
	68.25			  10.54936			  0.17492			 -0.40270
	68.50			  10.65785			  0.19813			 -0.44239
	68.75			  10.73845			  0.38396			 -0.41011
	69.00			  10.73573			  0.63209			 -0.27471
	69.25			  10.80343			  0.39108			 -0.33636
	69.50			  10.82825			  0.55224			 -0.32922
	69.75			  10.92447			  0.52538			 -0.33487
	70.00			  10.82896			  0.34394			 -0.42934
	70.25			  10.74853			  0.34248			 -0.38469
	70.50			  10.63320			  0.36404			 -0.43675
	70.75			  10.78546			  0.36550			 -0.40124
	71.00			  10.84571			  0.33188			 -0.40712
	71.25			  10.83492			  0.26300			 -0.31313
	71.50			  10.68977			  0.15976			 -0.32047
	71.75			  10.84755			  0.16743			 -0.28421
	72.00			  10.67434			  0.21659			 -0.27292
	72.25			  10.65934			  0.26044			 -0.28920
	72.50			  10.68960			  0.25203			 -0.26838
	72.75			  10.74652			  0.38560			 0.03054
	73.00			  10.83939			  0.40534			 0.08239
	73.25			  10.68951			  0.22956			 0.28056
	73.50			  10.70898			  0.26026			 0.33026
	73.75			  10.67819			  0.10823			 0.38994
	74.00			  10.74494			  -0.03045			 0.29998
	74.25			  10.57497			  -0.08436			 0.30353
	74.50			  10.59093			  0.04446			 0.20735
	74.75			  10.68170			  0.05524			 0.32351
	75.00			  10.69845			  -0.08856			 0.17868
	75.25			  10.89254			  -0.08472			 0.08714
	75.50			  10.83694			  -0.27767			 0.10102
	75.75			  10.98823			  -0.28827			 0.06154
	76.00			  11.13723			  -0.17188			 0.17226
	76.25			  10.94543			  -0.14319			 0.03633
	76.50			  10.75379			  -0.17334			 -0.11032
	76.75			  10.68179			  -0.10372			 -0.13732
	77.00			  10.44087			  0.04410			 -0.04294
	77.25			  10.48402			  0.08521			 0.20380
	77.50			  10.55330			  0.08941			 0.27536
	77.75			  10.58190			  0.07680			 0.43558
	78.00			  10.57918			  0.17949			 0.49701
	78.25			  10.54103			  0.13564			 0.25416
	78.50			  10.63311			  0.27908			 0.16207
	78.75			  10.58488			  0.31818			 0.25016
	79.00			  10.49437			  0.22408			 0.11294
	79.25			  10.39947			  0.04958			 0.16626
	79.50			  10.40719			  -0.04397			 0.42366
	79.75			  10.38526			  0.25934			 0.30825
	80.00			  10.38939			  0.29497			 0.26413
	80.25			  10.24380			  0.34303			 0.05843
	80.50			  10.21758			  0.15483			 -0.01531
	80.75			  10.16811			  -0.06590			 -0.10133
	81.00			  10.12496			  -0.19910			 -0.29034
	81.25			  10.14452			  -0.29010			 -0.08547
	81.50			  10.24608			  -0.19253			 0.12337
	81.75			  10.38860			  -0.16018			 0.17304
	82.00			  10.33931			  0.00664			 0.08821
	82.25			  10.41070			  0.00317			 0.31237
	82.50			  10.30212			  0.07735			 0.18471
	82.75			  10.27572			  0.11993			 0.15279
	83.00			  10.29774			  0.16433			 0.06372
	83.25			  10.27853			  -0.00579			 0.15679
	83.50			  10.34159			  0.04812			 0.14466
	83.75			  10.28581			  0.20032			 0.14406
	84.00			  10.21950			  0.29790			 0.24472
	84.25			  9.94105			  0.18351			 0.31243
	84.50			  9.91333			  0.32439			 0.27560
	84.75			  10.08742			  0.42379			 0.30293
	85.00			  10.02103			  0.28712			 0.29063
	85.25			  10.10189			  0.25112			 0.27590
	85.50			  10.17302			  0.13016			 0.13257
	85.75			  10.36948			  0.19100			 -0.15196
	86.00			  10.17881			  -0.05348			 -0.21549
	86.25			  10.14732			  -0.23985			 -0.26229
	86.50			  10.07690			  -0.25355			 -0.20730
	86.75			  9.89921			  -0.20842			 -0.14778
	87.00			  9.96464			  -0.25301			 -0.22543
	87.25			  10.01647			  -0.32207			 -0.09112
	87.50			  9.95762			  -0.25575			 0.01503
	87.75			  9.79598			  -0.25337			 0.11835
	88.00			  9.87834			  -0.27457			 0.11258
	88.25			  9.78213			  -0.30070			 -0.01244
	88.50			  9.63452			  -0.17992			 -0.11173
	88.75			  9.66548			  -0.27420			 -0.12233
	89.00			  9.70162			  -0.22121			 -0.03622
	89.25			  9.68030			  -0.14502			 0.01441
	89.50			  9.91298			  0.02637			 0.02868
	89.75			  10.11549			  -0.06663			 0.06324
	90.00			  9.93035			  -0.10372			 0.15192
	90.25			  9.90412			  0.03916			 0.23223
	90.50			  9.85334			  -0.05823			 0.14454
	90.75			  9.84983			  -0.07632			 -0.03568
	91.00			  10.00928			  -0.01876			 0.04729
	91.25			  10.10347			  -0.20751			 0.04192
	91.50			  9.93385			  -0.14812			 -0.15082
	91.75			  10.02533			  0.01431			 -0.15441
	92.00			  10.06330			  -0.04178			 -0.11782
	92.25			  10.20319			  -0.26799			 -0.06074
	92.50			  10.26344			  -0.36209			 0.05688
	92.75			  10.20328			  -0.19892			 0.16417
	93.00			  10.10926			  -0.21427			 0.18952
	93.25			  10.30370			  -0.27201			 -0.01250
	93.50			  10.22187			  -0.23437			 -0.07803
	93.75			  10.19039			  -0.34820			 -0.17394
	94.00			  10.00402			  -0.40028			 0.07824
	94.25			  9.85404			  -0.17297			 -0.01913
	94.50			  9.67074			  -0.25063			 -0.10133
	94.75			  9.65329			  -0.23674			 -0.13723
	95.00			  9.68443			  -0.13661			 -0.10441
	95.25			  9.74284			  -0.18778			 -0.16629
	95.50			  9.76520			  -0.29777			 -0.25288
	95.75			  9.84492			  -0.24515			 -0.25942
	96.00			  9.89149			  -0.34985			 -0.07591
	96.25			  9.85562			  -0.43025			 -0.13908
	96.50			  9.90798			  -0.56546			 -0.22469
	96.75			  9.74371			  -0.62941			 -0.22071
	97.00			  9.69863			  -0.72771			 -0.07660
	97.25			  9.76695			  -0.67180			 0.02612
	97.50			  10.04041			  -0.64531			 -0.07484
	97.75			  9.88237			  -0.59890			 0.00118
	98.00			  9.82589			  -0.30947			 0.01465
	98.25			  9.78967			  -0.15470			 -0.25342
	98.50			  9.74468			  -0.24296			 -0.22173
	98.75			  9.77099			  -0.21317			 -0.06904
	99.00			  9.61944			  -0.19015			 -0.15632
	99.25			  9.57541			  -0.19856			 -0.16806
	99.50			  9.51437			  -0.21116			 -0.17254
	99.75			  9.58392			  -0.26086			 -0.05441
	100.00			  9.50376			  -0.12711			 -0.28173
	100.25			  9.53901			  -0.24807			 -0.26229
	100.50			  9.68065			  -0.42951			 -0.17451
	100.75			  9.76266			  -0.20678			 0.01916
	101.00			  9.82089			  -0.23346			 0.22295
	101.25			  9.71872			  -0.22194			 0.09398
	101.50			  9.73521			  -0.15196			 -0.04960
	101.75			  9.83010			  -0.09568			 -0.06710
	102.00			  9.85773			  -0.06042			 -0.00456
	102.25			  9.74406			  -0.06919			 0.13594
	102.50			  9.58190			  -0.23254			 0.03018
	102.75			  9.68679			  -0.18650			 -0.01391
	103.00			  9.54734			  -0.31020			 0.07967
	103.25			  9.61049			  -0.30344			 0.12582
	103.50			  9.40263			  -0.53092			 0.13693
	103.75			  9.32037			  -0.41161			 0.09374
	104.00			  9.40816			  -0.37397			 0.13161
	104.25			  9.50121			  -0.37945			 0.12316
	104.50			  9.50288			  -0.29394			 0.08119
	104.75			  9.41290			  -0.36940			 0.01677
	105.00			  9.31756			  -0.48177			 -0.07699
	105.25			  9.25178			  -0.41344			 -0.00844
	105.50			  9.22617			  -0.21628			 -0.28141
	105.75			  9.41097			  -0.18924			 0.02492
	106.00			  9.51840			  -0.22761			 -0.14458
	106.25			  9.38711			  -0.30344			 0.01916
	106.50			  9.42570			  -0.31550			 0.17372
	106.75			  9.50025			  -0.18485			 0.26718
	107.00			  9.50498			  -0.00597			 0.20153
	107.25			  9.49314			  0.06237			 0.34597
	107.50			  9.58076			  0.09197			 0.24448
	107.75			  9.50007			  0.21732			 0.11820
	108.00			  9.61952			  0.11353			 0.15291
	108.25			  9.66101			  -0.00250			 0.05927
	108.50			  9.58778			  -0.16329			 -0.00841
	108.75			  9.73599			  -0.02132			 -0.12564
	109.00			  9.66224			  0.11371			 -0.18738
	109.25			  9.83194			  0.11865			 -0.10226
	109.50			  9.85413			  0.01523			 -0.09019
	109.75			  9.91412			  0.07479			 -0.06624
	110.00			  9.94692			  0.01066			 0.02104
	110.25			  9.84098			  0.01303			 -0.12340
	110.50			  9.81633			  0.15556			 -0.11588
	110.75			  9.86132			  0.33225			 -0.07926
	111.00			  9.98621			  0.31599			 -0.19264
	111.25			  10.08988			  0.30703			 -0.24915
	111.50			  9.92175			  0.18077			 -0.35240
	111.75			  9.91973			  0.10348			 -0.29072
	112.00			  9.82422			  0.10147			 -0.30372
	112.25			  9.80063			  0.17840			 -0.37609
	112.50			  9.69600			  0.31982			 -0.60655
	112.75			  9.72530			  0.31032			 -0.65171
	113.00			  9.72696			  0.45577			 -0.59338
	113.25			  9.70074			  0.33809			 -0.45775
	113.50			  9.51454			  0.44188			 -0.35930
	113.75			  9.56611			  0.33188			 -0.23499
	114.00			  9.71951			  0.16232			 -0.22391
	114.25			  9.63373			  0.19192			 -0.25446
	114.50			  9.61286			  0.11353			 -0.21438
	114.75			  9.69188			  0.14277			 -0.06423
	115.00			  9.73301			  0.00700			 -0.11337
	115.25			  9.62742			  0.08886			 -0.19792
	115.50			  9.80414			  0.15921			 -0.27203
	115.75			  9.74126			  0.24271			 -0.21384
	116.00			  9.73845			  0.19466			 -0.16716
	116.25			  9.80282			  0.25514			 0.03767
	116.50			  9.97139			  0.19429			 0.02432
	116.75			  9.91351			  0.27926			 0.14962
	117.00			  9.92412			  0.41392			 0.04535
	117.25			  9.97867			  0.26318			 -0.10963
	117.50			  9.88886			  0.31672			 -0.09192
	117.75			  9.91737			  0.21622			 0.02680
	118.00			  9.89614			  0.10366			 -0.14637
	118.25			  9.91921			  0.10019			 -0.11035
	118.50			  9.92991			  0.12395			 0.05470
	118.75			  9.92684			  0.14880			 -0.05139
	119.00			  9.89281			  0.31215			 -0.02427
	119.25			  10.05497			  0.42507			 0.03006
	119.50			  10.16232			  0.21841			 -0.13867
	119.75			  10.20845			  0.13144			 -0.12092
	120.00			  10.30344			  0.02546			 -0.15420
	120.25			  10.29204			  0.08649			 -0.12612
	120.50			  10.27353			  0.01468			 -0.25166
	120.75			  10.30975			  -0.14027			 -0.37582
	121.00			  10.39368			  -0.33797			 -0.21704
	121.25			  10.31729			  -0.27749			 -0.14219
	121.50			  10.54138			  -0.11779			 -0.07134
	121.75			  10.41736			  0.00390			 -0.04216
	122.00			  10.51252			  -0.15415			 0.04386
	122.25			  10.50252			  -0.30691			 0.05885
	122.50			  10.35992			  -0.36702			 -0.08057
	122.75			  10.58304			  -0.13296			 -0.24001
	123.00			  10.48069			  -0.24497			 -0.23822
	123.25			  10.55129			  -0.26415			 -0.38529
	123.50			  10.75476			  -0.29120			 -0.00435
	123.75			  10.73038			  -0.12291			 -0.01833
	124.00			  10.73468			  -0.03301			 -0.00829
	124.25			  10.61934			  -0.12273			 0.12178
	124.50			  10.51436			  -0.39589			 -0.02364
	124.75			  10.57084			  -0.34930			 -0.07875
	125.00			  10.49963			  -0.20660			 -0.02006
	125.25			  10.56602			  -0.17827			 -0.00635
	125.50			  10.77432			  -0.28334			 0.04051
	125.75			  10.94516			  -0.22505			 0.04236
	126.00			  11.04357			  -0.15141			 0.00993
	126.25			  11.03181			  -0.30106			 -0.04136
	126.50			  10.82483			  -0.30947			 0.05631
	126.75			  10.61505			  -0.24259			 0.05183
	127.00			  10.64250			  -0.19198			 0.00739
	127.25			  10.61654			  -0.25794			 0.01996
	127.50			  10.40631			  -0.10628			 -0.00172
	127.75			  10.52901			  0.02729			 0.11461
	128.00			  10.62531			  0.16396			 0.49687
	128.25			  10.65241			  -0.01309			 0.17892
	128.50			  10.48814			  -0.02917			 0.08254
	128.75			  10.43096			  0.22645			 -0.02824
	129.00			  10.29967			  0.09343			 -0.13066
	129.25			  10.37386			  0.08320			 0.08923
	129.50			  10.56620			  0.19393			 0.01477
	129.75			  10.65443			  0.15610			 0.01656
	130.00			  10.57225			  0.25459			 0.00237
	130.25			  10.53401			  0.31452			 -0.07884
	130.50			  10.70679			  0.17858			 0.05751
	130.75			  10.55865			  0.06895			 0.07850
	131.00			  10.55427			  0.15519			 0.14639
	131.25			  10.68547			  0.04483			 0.07292
	131.50			  10.60128			  -0.00359			 -0.01943
	131.75			  10.56839			  -0.20422			 0.06814
	132.00			  10.48647			  -0.17261			 0.08224
	132.25			  10.44701			  -0.16092			 0.03639
	132.50			  10.52401			  -0.39937			 0.10488
	132.75			  10.37597			  -0.30070			 0.22065
	133.00			  10.19477			  -0.27639			 0.45114
	133.25			  10.23301			  -0.26324			 0.33692
	133.50			  10.15311			  -0.21537			 0.33423
	133.75			  10.29063			  -0.21792			 0.20335
	134.00			  10.13531			  -0.15945			 0.12937
	134.25			  10.08488			  -0.13131			 0.06987
	134.50			  10.02884			  -0.10902			 0.05497
	134.75			  10.05278			  -0.22213			 -0.02358
	135.00			  10.08795			  -0.15653			 0.08887
	135.25			  10.08348			  -0.05183			 -0.12980
	135.50			  10.01428			  -0.15489			 -0.13675
	135.75			  10.22547			  -0.29046			 -0.03039
	136.00			  10.13163			  -0.08399			 0.02934
	136.25			  10.15969			  -0.05640			 -0.04832
	136.50			  10.18469			  -0.02241			 0.10562
	136.75			  10.19433			  -0.17955			 0.12375
	137.00			  10.14127			  -0.13753			 0.05906
	137.25			  10.15083			  -0.29412			 0.15052
	137.50			  10.15785			  -0.21920			 0.07958
	137.75			  10.15539			  -0.01766			 0.16635
	138.00			  10.12803			  -0.04288			 0.10123
	138.25			  10.12838			  -0.16822			 0.01002
	138.50			  10.21249			  -0.04818			 -0.15223
	138.75			  10.20503			  -0.02461			 -0.22728
	139.00			  10.27239			  -0.16512			 -0.23081
	139.25			  10.40973			  -0.16293			 -0.05996
	139.50			  10.48209			  -0.21792			 -0.00982
	139.75			  10.53717			  -0.35734			 -0.10223
	140.00			  10.51612			  -0.33359			 -0.15545
	140.25			  10.42938			  -0.20897			 -0.08502
	140.50			  10.27590			  -0.45692			 -0.19709
	140.75			  10.21442			  -0.57386			 -0.21671
	141.00			  10.20959			  -0.38968			 -0.10754
	141.25			  10.25476			  -0.27036			 -0.00677
	141.50			  10.11338			  -0.22779			 0.00951
	141.75			  10.14285			  -0.05274			 -0.07448
	142.00			  10.12768			  -0.20660			 -0.15530
	142.25			  10.05190			  -0.30124			 0.05506
	142.50			  10.10303			  -0.18759			 -0.19082
	142.75			  9.91473			  -0.29028			 -0.32743
	143.00			  9.87492			  -0.32335			 -0.17484
	143.25			  9.99007			  -0.44084			 -0.13529
	143.50			  9.87860			  -0.46039			 -0.14416
	143.75			  9.93885			  -0.48049			 -0.21614
	144.00			  10.01928			  -0.48506			 -0.29965
	144.25			  9.99735			  -0.54317			 -0.34377
	144.50			  10.04173			  -0.34272			 -0.15034
	144.75			  10.09970			  -0.21866			 -0.22803
	145.00			  9.92193			  -0.11249			 -0.39935
	145.25			  9.98411			  -0.07230			 -0.55314
	145.50			  10.24818			  -0.05750			 -0.62029
	145.75			  10.10707			  -0.07979			 -0.52853
	146.00			  9.94175			  -0.15891			 -0.43770
	146.25			  10.04883			  -0.18211			 -0.36695
	146.50			  10.01691			  -0.26287			 -0.29777
	146.75			  9.91000			  -0.23291			 -0.41294
	147.00			  9.88693			  -0.15306			 -0.33493
	147.25			  9.92649			  -0.19910			 -0.14380
	147.50			  10.07418			  -0.31860			 -0.21128
	147.75			  9.97227			  -0.39809			 -0.24957
	148.00			  9.96648			  -0.42111			 -0.08493
	148.25			  10.13241			  -0.40759			 -0.00229
	148.50			  10.24880			  -0.29704			 -0.17779
	148.75			  10.19468			  -0.31294			 -0.26650
	149.00			  10.08207			  -0.38986			 0.02128
	149.25			  10.04638			  -0.23875			 0.02199
	149.50			  10.01261			  -0.23108			 0.07558
	149.75			  9.98674			  -0.23748			 0.19517
	150.00			  9.80853			  -0.13881			 0.11470
	150.25			  9.75064			  -0.11122			 0.17898
	150.50			  9.80256			  -0.14995			 0.16091
	150.75			  10.04322			  -0.04982			 0.14063
	151.00			  9.93254			  -0.20148			 -0.01292
	151.25			  9.89597			  -0.10464			 -0.04581
	151.50			  9.93719			  -0.07796			 0.00082
	151.75			  10.09418			  -0.38859			 -0.03595
	152.00			  10.34203			  -0.24277			 0.00303
	152.25			  10.37106			  -0.10519			 -0.20196
	152.50			  10.14697			  -0.01894			 -0.30796
	152.75			  10.13259			  -0.20934			 -0.33863
	153.00			  10.05208			  -0.27859			 -0.24574
	153.25			  10.04076			  -0.29156			 -0.06749
	153.50			  9.96552			  -0.28060			 -0.13281
	153.75			  9.90938			  -0.34528			 0.01527
	154.00			  9.83878			  -0.41216			 -0.05772
	154.25			  9.72161			  -0.27566			 0.11315
	154.50			  9.77406			  -0.60438			 -0.10928
	154.75			  9.68381			  -0.75330			 -0.01280
	155.00			  9.74819			  -0.70195			 0.13194
	155.25			  9.80230			  -0.78454			 0.23997
	155.50			  9.87869			  -0.83936			 0.26121
	155.75			  9.83492			  -0.69154			 0.14610
	156.00			  9.79476			  -0.61973			 0.05210
	156.25			  9.93640			  -0.69501			 0.04428
	156.50			  9.93420			  -0.59433			 0.08057
	156.75			  9.77651			  -0.70360			 -0.10417
	157.00			  9.85492			  -0.61954			 -0.10584
	157.25			  9.80318			  -0.63581			 0.12525
	157.50			  9.76906			  -0.73722			 0.06462
	157.75			  9.87676			  -0.63252			 -0.02971
	158.00			  9.89325			  -0.52489			 -0.05351
	158.25			  9.74108			  -0.52873			 -0.11002
	158.50			  9.79020			  -0.63599			 0.03194
	158.75			  10.00454			  -0.48799			 0.08310
	159.00			  9.93236			  -0.42367			 0.06333
	159.25			  10.03384			  -0.61461			 0.20401
	159.50			  9.99665			  -0.59981			 0.01064
	159.75			  9.98174			  -0.64366			 -0.00811
	160.00			  10.07462			  -0.65755			 0.02973
	160.25			  10.16925			  -0.68057			 0.01689
	160.50			  10.16364			  -0.41161			 0.02821
	160.75			  10.13952			  -0.27585			 -0.25823
	161.00			  10.28949			  -0.22450			 -0.29526
	161.25			  10.38281			  -0.24588			 -0.29697
	161.50			  10.38465			  -0.42093			 -0.20924
	161.75			  10.49665			  -0.32153			 -0.11220
	162.00			  10.53883			  -0.42184			 -0.15951
	162.25			  10.46955			  -0.35222			 -0.12146
	162.50			  10.40184			  -0.18960			 -0.23496
	162.75			  10.17083			  -0.16146			 -0.23911
	163.00			  10.23748			  -0.16183			 -0.21241
	163.25			  10.37544			  -0.29832			 -0.18505
	163.50			  10.26362			  -0.42403			 -0.21163
	163.75			  10.45920			  -0.34290			 -0.30930
	164.00			  10.37676			  -0.33688			 -0.20181
	164.25			  10.49068			  -0.28188			 -0.31088
	164.50			  10.40342			  -0.05914			 -0.25811
	164.75			  10.45227			  0.02765			 -0.15067
	165.00			  10.50112			  -0.11414			 -0.24288
	165.25			  10.51068			  -0.08271			 -0.28123
	165.50			  10.45280			  -0.13369			 -0.26970