--------------TurbSim v2.00.* User Time Series Input File-----------------------
     Time series input from low-res turbsim run
--------------------------------------------------------------------------------
          3 nComp - Number of velocity components in the file
          1 nPoints - Number of time series points contained in this file (-)
          1 RefPtID - Index of the reference point (1-nPoints)
     Pointyi Pointzi ! nPoints listed in order of increasing height
       (m)     (m)
       -2.81586   94.00000
--------Time Series-------------------------------------------------------------
Elapsed Time         Point01u             Point01v           Point01w
         (s)            (m/s)                (m/s)              (m/s)
	0.00			  10.53872			  1.02185			 0.16816
	0.25			  10.53929			  0.99335			 0.13598
	0.50			  10.65009			  0.91366			 -0.02652
	0.75			  10.40164			  0.87112			 -0.03239
	1.00			  10.22202			  1.14222			 -0.12926
	1.25			  10.11395			  1.03031			 -0.12441
	1.50			  10.03148			  0.92522			 0.32977
	1.75			  10.09075			  0.94298			 0.24223
	2.00			  9.96789			  0.98799			 0.38956
	2.25			  9.97699			  0.66280			 0.25426
	2.50			  9.64482			  0.71793			 0.11634
	2.75			  9.67053			  1.03981			 0.02432
	3.00			  9.43414			  0.87257			 0.02246
	3.25			  9.34006			  0.62398			 -0.05814
	3.50			  9.35531			  0.57298			 -0.21769
	3.75			  9.43755			  0.56617			 -0.04750
	4.00			  9.47714			  0.39253			 -0.11019
	4.25			  9.38090			  0.46314			 -0.11308
	4.50			  9.37271			  0.62708			 0.01224
	4.75			  9.35633			  0.55626			 -0.03971
	5.00			  9.47111			  0.40141			 0.02591
	5.25			  9.33733			  0.83293			 -0.04457
	5.50			  9.05340			  0.68076			 0.20473
	5.75			  8.81178			  0.48874			 -0.09746
	6.00			  8.93441			  0.46005			 0.04806
	6.25			  8.79346			  0.37808			 -0.05660
	6.50			  8.73488			  0.33121			 -0.13332
	6.75			  8.67140			  0.09336			 0.18033
	7.00			  8.79528			  -0.04456			 0.24810
	7.25			  8.76559			  -0.10485			 0.07409
	7.50			  8.87685			  -0.10237			 0.15076
	7.75			  8.75183			  -0.02577			 0.27954
	8.00			  8.86615			  -0.06810			 0.40467
	8.25			  8.88356			  -0.50375			 0.16242
	8.50			  8.84340			  -0.44614			 0.09881
	8.75			  8.81860			  -0.31400			 -0.01206
	9.00			  8.74717			  -0.22419			 -0.22217
	9.25			  8.71679			  0.08221			 0.06266
	9.50			  8.72043			  0.19370			 0.31718
	9.75			  8.80188			  -0.10527			 0.39381
	10.00			  8.56652			  0.03038			 0.38243
	10.25			  8.51396			  0.16851			 0.31102
	10.50			  8.44935			  0.17285			 0.22198
	10.75			  8.33832			  0.14456			 0.01266
	11.00			  8.33685			  0.04174			 -0.16089
	11.25			  8.43320			  -0.19074			 -0.29143
	11.50			  8.43399			  -0.31855			 -0.40244
	11.75			  8.39315			  -0.28242			 -0.07567
	12.00			  8.35050			  -0.11063			 -0.07241
	12.25			  8.27052			  -0.23575			 0.09065
	12.50			  8.26654			  0.11008			 -0.04289
	12.75			  8.37700			  0.27588			 0.02269
	13.00			  8.50191			  0.32481			 -0.09853
	13.25			  8.46528			  0.22096			 -0.20412
	13.50			  8.49497			  0.18565			 -0.28779
	13.75			  8.71190			  0.19556			 -0.06751
	14.00			  8.63989			  0.31015			 0.06788
	14.25			  8.64956			  0.82178			 0.10049
	14.50			  8.82748			  0.72309			 -0.14405
	14.75			  8.98446			  0.72474			 -0.06705
	15.00			  9.19685			  0.36135			 0.03626
	15.25			  9.03087			  0.28434			 -0.07469
	15.50			  9.18547			  0.28042			 -0.08962
	15.75			  9.26806			  0.61242			 -0.18612
	16.00			  9.17000			  0.67870			 -0.12605
	16.25			  9.26089			  0.39067			 -0.17460
	16.50			  9.44848			  0.41215			 -0.12502
	16.75			  9.46622			  0.46438			 -0.00264
	17.00			  9.67963			  0.43548			 -0.15459
	17.25			  9.44267			  0.55399			 -0.18910
	17.50			  9.35610			  0.55894			 -0.17903
	17.75			  9.50968			  0.20671			 -0.17926
	18.00			  9.52481			  0.26617			 -0.21569
	18.25			  9.27056			  0.16521			 -0.20431
	18.50			  9.40957			  0.20010			 -0.28910
	18.75			  9.43528			  0.40327			 -0.22707
	19.00			  9.44791			  0.62398			 -0.04620
	19.25			  9.60591			  0.41256			 0.07773
	19.50			  9.58373			  0.34979			 -0.06910
	19.75			  9.55416			  0.40513			 0.06588
	20.00			  9.53174			  0.14931			 -0.10473
	20.25			  9.49489			  0.43073			 0.27352
	20.50			  9.37874			  0.68902			 0.30267
	20.75			  9.35360			  0.91242			 0.04979
	21.00			  9.16408			  0.97725			 -0.00282
	21.25			  9.08798			  0.77429			 -0.22268
	21.50			  9.15316			  0.97952			 -0.22768
	21.75			  9.26226			  0.95165			 0.06760
	22.00			  9.41810			  0.59714			 0.00324
	22.25			  9.52014			  0.70801			 -0.20151
	22.50			  9.57986			  0.77388			 -0.29964
	22.75			  9.71353			  0.84800			 -0.28346
	23.00			  9.86244			  0.76417			 -0.29969
	23.25			  9.93046			  0.62687			 -0.23444
	23.50			  9.83593			  0.50980			 -0.14088
	23.75			  9.89463			  0.48730			 0.21084
	24.00			  9.93194			  0.34773			 0.01499
	24.25			  9.81227			  0.16191			 -0.23005
	24.50			  9.85618			  -0.06459			 -0.07493
	24.75			  9.64391			  0.17388			 0.42636
	25.00			  9.58225			  0.17801			 0.52286
	25.25			  9.60557			  0.38179			 0.80779
	25.50			  9.51832			  0.32440			 0.52655
	25.75			  9.77769			  0.34546			 0.60817
	26.00			  10.06697			  0.38056			 0.43756
	26.25			  10.23180			  0.46376			 0.35141
	26.50			  10.26752			  0.40513			 0.33616
	26.75			  10.19825			  0.16665			 0.15953
	27.00			  10.13648			  0.05619			 0.27884
	27.25			  10.38071			  0.09501			 -0.11159
	27.50			  10.09552			  0.10286			 -0.11975
	27.75			  10.05457			  0.25667			 -0.02666
	28.00			  10.12078			  0.16294			 0.00534
	28.25			  10.23237			  0.22054			 -0.03794
	28.50			  10.27514			  0.38654			 0.10478
	28.75			  10.35500			  0.43733			 0.06509
	29.00			  10.08654			  0.25378			 -0.04736
	29.25			  10.29937			  0.42102			 0.08733
	29.50			  10.28379			  0.33947			 -0.02255
	29.75			  10.36615			  0.51848			 -0.25211
	30.00			  10.25842			  0.21806			 0.07819
	30.25			  10.04513			  0.34298			 -0.01999
	30.50			  10.10223			  0.34009			 0.12609
	30.75			  10.21724			  0.45654			 0.04149
	31.00			  10.14250			  0.10822			 0.16126
	31.25			  10.12430			  -0.06315			 0.08519
	31.50			  10.08779			  -0.09040			 -0.07507
	31.75			  10.05980			  -0.41187			 0.02493
	32.00			  9.96800			  -0.25867			 0.05487
	32.25			  9.97608			  -0.14718			 0.03034
	32.50			  10.18983			  -0.45688			 0.15743
	32.75			  10.07755			  -0.65241			 0.09232
	33.00			  9.86642			  -0.39350			 0.25085
	33.25			  9.76768			  -0.27230			 0.33695
	33.50			  9.97619			  -0.20850			 0.29717
	33.75			  9.93899			  -0.50272			 0.51983
	34.00			  10.21713			  -0.40155			 0.47212
	34.25			  9.95594			  -0.45069			 0.14172
	34.50			  9.93080			  -0.60265			 0.31387
	34.75			  10.07550			  -0.51449			 0.14899
	35.00			  10.33202			  -0.22894			 0.07982
	35.25			  10.44635			  -0.41951			 0.18215
	35.50			  10.44396			  -0.46844			 0.25431
	35.75			  10.33475			  -0.45007			 0.21508
	36.00			  10.55829			  -0.60781			 0.22502
	36.25			  10.45261			  -0.56032			 0.17945
	36.50			  10.62358			  -0.76266			 0.15743
	36.75			  10.49959			  -0.87643			 -0.05431
	37.00			  10.32531			  -0.27354			 -0.12138
	37.25			  10.32190			  -0.26982			 0.19517
	37.50			  10.28243			  -0.61215			 0.21210
	37.75			  10.36956			  -0.37822			 0.15174
	38.00			  10.47354			  -0.46886			 0.07651
	38.25			  10.20462			  -0.48599			 0.39945
	38.50			  10.30654			  -0.44945			 0.16163
	38.75			  10.34488			  -0.72426			 0.51279
	39.00			  10.51062			  -0.82729			 0.68386
	39.25			  10.59241			  -0.61111			 1.04924
	39.50			  10.50687			  -0.57230			 0.73624
	39.75			  10.64918			  -0.56466			 0.62183
	40.00			  10.82493			  -0.83658			 0.63382
	40.25			  10.78750			  -0.93527			 0.39143
	40.50			  10.56568			  -0.92247			 0.29414
	40.75			  10.77545			  -0.81015			 0.47748
	41.00			  10.63257			  -0.86982			 0.33695
	41.25			  10.58729			  -0.75585			 0.17614
	41.50			  10.79262			  -0.76039			 0.01532
	41.75			  10.69297			  -0.69473			 -0.05571
	42.00			  10.78455			  -0.81036			 -0.21895
	42.25			  10.89011			  -0.89336			 -0.23854
	42.50			  11.04983			  -0.74883			 -0.17175
	42.75			  11.02514			  -0.87704			 -0.36825
	43.00			  10.91093			  -0.80581			 -0.43271
	43.25			  11.10511			  -0.75337			 -0.56302
	43.50			  11.13276			  -0.74098			 -0.37142
	43.75			  11.22422			  -0.66232			 -0.19983
	44.00			  11.40327			  -0.71125			 -0.28290
	44.25			  11.52579			  -0.91008			 -0.30836
	44.50			  11.62214			  -1.11965			 0.07889
	44.75			  11.45912			  -1.11097			 0.21676
	45.00			  11.44115			  -1.35585			 0.21611
	45.25			  11.60314			  -1.27986			 -0.03995
	45.50			  11.36209			  -1.33107			 0.08370
	45.75			  11.09249			  -1.20141			 0.16210
	46.00			  11.08782			  -0.89480			 0.09466
	46.25			  10.74576			  -0.68503			 -0.03869
	46.50			  10.94631			  -0.50148			 0.24101
	46.75			  10.92595			  -0.50932			 0.34614
	47.00			  10.93357			  -0.67347			 0.00138
	47.25			  11.01126			  -0.71992			 -0.16583
	47.50			  10.91241			  -0.92309			 -0.05576
	47.75			  10.84700			  -0.98296			 -0.21494
	48.00			  10.87589			  -0.89336			 -0.46298
	48.25			  11.07349			  -0.78558			 -0.14708
	48.50			  10.95325			  -0.80623			 -0.18178
	48.75			  10.96326			  -0.44078			 -0.10865
	49.00			  11.05745			  -0.50561			 0.07026
	49.25			  10.92333			  -0.38854			 -0.00879
	49.50			  10.93289			  -0.49756			 -0.31508
	49.75			  11.06382			  -0.60389			 -0.20426
	50.00			  10.95677			  -0.61751			 -0.17833
	50.25			  10.70310			  -0.79157			 -0.31862
	50.50			  10.98078			  -0.80850			 -0.61129
	50.75			  10.94142			  -0.88365			 -0.39101
	51.00			  10.84268			  -0.78744			 -0.18066
	51.25			  10.59958			  -0.70857			 -0.14302
	51.50			  10.38390			  -0.45502			 0.20622
	51.75			  10.29391			  -0.43995			 0.04531
	52.00			  10.29903			  -0.12550			 -0.22054
	52.25			  10.36478			  -0.19570			 -0.11014
	52.50			  10.44555			  -0.09329			 0.11774
	52.75			  10.40164			  0.17182			 0.00795
	53.00			  10.52700			  0.00705			 -0.10254
	53.25			  10.38435			  0.11710			 -0.17297
	53.50			  10.69093			  0.15241			 -0.12642
	53.75			  10.69070			  0.04855			 -0.18010
	54.00			  10.62927			  -0.01256			 -0.10781
	54.25			  10.63007			  0.17595			 -0.13696
	54.50			  10.60197			  0.13486			 -0.34740
	54.75			  10.50471			  0.32047			 -0.36760
	55.00			  10.63109			  0.33162			 -0.19834
	55.25			  10.65862			  0.18916			 -0.05077
	55.50			  10.56886			  0.28124			 -0.31270
	55.75			  10.45954			  0.26989			 -0.18229
	56.00			  10.40744			  0.23582			 -0.12954
	56.25			  10.35330			  0.24903			 -0.07278
	56.50			  10.29357			  0.19453			 -0.01420
	56.75			  10.39448			  0.49556			 -0.20463
	57.00			  10.42701			  0.39356			 -0.20048
	57.25			  10.37252			  0.26762			 -0.36956
	57.50			  10.12430			  0.24387			 -0.44124
	57.75			  10.16526			  0.12350			 -0.52333
	58.00			  10.33509			  0.31552			 -0.37940
	58.25			  10.37741			  0.08035			 -0.26900
	58.50			  10.22782			  -0.05509			 -0.25407
	58.75			  10.08756			  -0.12798			 -0.32198
	59.00			  10.19517			  -0.21449			 -0.45621
	59.25			  10.38958			  0.02729			 -0.25011
	59.50			  10.57592			  -0.18021			 -0.28336
	59.75			  10.68069			  -0.05241			 -0.20226
	60.00			  10.30245			  0.01985			 -0.35225
	60.25			  10.32440			  0.15138			 -0.12208
	60.50			  10.08278			  0.27877			 -0.12376
	60.75			  10.14114			  -0.01566			 -0.03594
	61.00			  10.22464			  0.01160			 -0.03458
	61.25			  10.24944			  0.28517			 0.11522
	61.50			  10.29505			  0.25482			 0.04219
	61.75			  10.22452			  0.07333			 0.24866
	62.00			  10.50402			  0.03162			 0.18234
	62.25			  10.36478			  0.02646			 0.39814
	62.50			  10.08039			  0.12082			 0.56409
	62.75			  10.27867			  0.04153			 0.54949
	63.00			  10.31928			  -0.04807			 0.46680
	63.25			  10.33157			  -0.18310			 0.35538
	63.50			  10.42473			  -0.07966			 0.38658
	63.75			  10.25490			  0.04236			 0.06621
	64.00			  10.35079			  0.05021			 -0.16732
	64.25			  10.20484			  0.10554			 -0.15417
	64.50			  10.23954			  0.00643			 -0.24041
	64.75			  10.26491			  0.37787			 -0.57398
	65.00			  10.33225			  0.55543			 -0.23812
	65.25			  10.14159			  0.54119			 -0.27516
	65.50			  10.26343			  0.47285			 -0.44763
	65.75			  10.17595			  0.23912			 -0.02731
	66.00			  9.94309			  -0.20747			 -0.07698
	66.25			  10.07675			  -0.27560			 -0.17516
	66.50			  10.29915			  -0.01628			 -0.16191
	66.75			  10.43088			  -0.05984			 -0.20072
	67.00			  10.39721			  -0.08586			 -0.24148
	67.25			  10.39868			  -0.05324			 -0.13855
	67.50			  10.20143			  -0.20086			 -0.20729
	67.75			  10.08108			  0.07725			 -0.39115
	68.00			  9.96140			  0.09356			 -0.27488
	68.25			  9.85106			  0.17553			 -0.27320
	68.50			  9.97062			  0.05599			 -0.05497
	68.75			  9.88007			  -0.00100			 0.22180
	69.00			  9.96334			  -0.13273			 0.12577
	69.25			  9.93706			  -0.10176			 0.23710
	69.50			  10.17140			  -0.07244			 -0.06639
	69.75			  10.09439			  -0.14346			 0.02586
	70.00			  10.09905			  0.01758			 -0.11369
	70.25			  10.02044			  0.29054			 -0.28019
	70.50			  10.33851			  0.18235			 -0.15468
	70.75			  10.26798			  0.28579			 0.17376
	71.00			  9.95776			  0.20134			 -0.04746
	71.25			  10.25160			  0.08551			 0.05422
	71.50			  10.28288			  0.16025			 0.06042
	71.75			  10.48457			  0.08902			 0.16270
	72.00			  10.42053			  0.33265			 0.35785
	72.25			  10.47797			  0.25502			 0.45379
	72.50			  10.15707			  0.43589			 0.21443
	72.75			  10.15593			  0.24325			 0.08831
	73.00			  10.07493			  0.05124			 0.02484
	73.25			  9.99758			  0.37746			 -0.07479
	73.50			  9.85140			  0.39790			 0.08990
	73.75			  10.03216			  0.08448			 -0.36867
	74.00			  10.09552			  0.02935			 -0.41237
	74.25			  10.39891			  -0.09412			 -0.09699
	74.50			  10.39698			  -0.22956			 -0.27049
	74.75			  10.16332			  -0.02722			 -0.10898
	75.00			  10.24454			  -0.19838			 -0.06998
	75.25			  10.27514			  -0.23100			 -0.17409
	75.50			  10.41598			  -0.14635			 -0.08640
	75.75			  10.44464			  -0.44098			 0.00683
	76.00			  10.29448			  -0.36191			 -0.16317
	76.25			  9.98495			  -0.22109			 -0.29246
	76.50			  10.08460			  -0.16246			 -0.16937
	76.75			  9.93183			  0.29446			 -0.13090
	77.00			  10.13716			  0.69501			 -0.11434
	77.25			  10.25387			  0.56865			 0.08337
	77.50			  10.47115			  0.17656			 0.20375
	77.75			  10.51335			  0.19473			 0.19153
	78.00			  10.45909			  0.14601			 0.02796
	78.25			  10.23453			  0.14456			 0.21975
	78.50			  10.13056			  0.24821			 0.06336
	78.75			  10.06344			  0.20010			 0.22702
	79.00			  10.00691			  0.26225			 0.19167
	79.25			  10.01282			  0.33162			 0.04223
	79.50			  10.19256			  0.29549			 0.33317
	79.75			  10.19233			  0.16727			 0.24946
	80.00			  10.25160			  0.11111			 0.17063
	80.25			  10.28743			  -0.04250			 -0.06108
	80.50			  10.15854			  0.07498			 0.08234
	80.75			  10.10405			  0.30767			 0.14022
	81.00			  9.94787			  0.24511			 0.34843
	81.25			  9.96300			  0.11731			 0.35659
	81.50			  9.94320			  -0.07615			 0.37454
	81.75			  10.14341			  -0.14202			 0.07483
	82.00			  10.00156			  -0.02743			 0.23131
	82.25			  10.16708			  0.09749			 0.08579
	82.50			  9.87438			  0.07746			 -0.03743
	82.75			  9.89099			  0.06528			 0.00394
	83.00			  9.60682			  0.03782			 0.29255
	83.25			  9.42470			  0.08324			 0.10678
	83.50			  9.47305			  0.29157			 -0.04069
	83.75			  9.51059			  0.41132			 -0.28486
	84.00			  9.67986			  0.40884			 -0.47510
	84.25			  9.64186			  0.41586			 -0.21023
	84.50			  9.44939			  0.68923			 -0.23439
	84.75			  9.23518			  0.65475			 -0.55187
	85.00			  9.09924			  0.58248			 -0.56279
	85.25			  8.92178			  0.87402			 -0.71665
	85.50			  9.12347			  0.96982			 -0.40915
	85.75			  9.14167			  0.79452			 -0.56027
	86.00			  9.48476			  0.40946			 -0.40999
	86.25			  9.35337			  0.41297			 -0.63848
	86.50			  9.15783			  0.36156			 -0.39707
	86.75			  9.38147			  0.18647			 -0.12399
	87.00			  9.63651			  0.40636			 -0.30015
	87.25			  9.46281			  0.79762			 -0.31611
	87.50			  9.31481			  0.60746			 -0.45621
	87.75			  9.26806			  0.41917			 -0.30981
	88.00			  9.21835			  0.55791			 -0.20328
	88.25			  9.46019			  0.47574			 -0.43653
	88.50			  9.71444			  0.74373			 -0.23453
	88.75			  9.64289			  0.61717			 -0.44628
	89.00			  9.45280			  0.58496			 -0.47501
	89.25			  9.74549			  0.66115			 -0.39927
	89.50			  9.93228			  0.55172			 -0.02092
	89.75			  9.96266			  0.84676			 0.00828
	90.00			  9.98609			  0.60251			 0.12255
	90.25			  9.97767			  1.02020			 0.10967
	90.50			  9.96868			  0.90684			 -0.04503
	90.75			  9.75027			  0.61965			 -0.14120
	91.00			  9.89759			  0.81269			 0.00100
	91.25			  9.65290			  0.61614			 0.01061
	91.50			  9.65824			  0.43114			 -0.39316
	91.75			  9.94229			  0.34277			 -0.40024
	92.00			  10.03614			  0.23293			 -0.30505
	92.25			  10.14398			  -0.24050			 -0.26308
	92.50			  10.00793			  -0.03940			 -0.36834
	92.75			  9.86164			  0.10740			 0.02651
	93.00			  9.89315			  0.22777			 0.16126
	93.25			  9.92978			  0.20217			 0.03290
	93.50			  9.80237			  -0.02598			 0.29703
	93.75			  9.89224			  -0.07388			 0.05664
	94.00			  9.95845			  -0.26259			 0.05081
	94.25			  10.08244			  -0.36831			 0.09843
	94.50			  9.84878			  -0.40898			 -0.08934
	94.75			  9.69806			  -0.45564			 -0.29927
	95.00			  9.75300			  -0.17340			 -0.10268
	95.25			  10.10235			  0.10389			 -0.03673
	95.50			  10.30176			  -0.13830			 0.08309
	95.75			  10.32019			  -0.10237			 -0.21853
	96.00			  10.32781			  -0.25557			 0.11569
	96.25			  10.08324			  -0.47608			 0.31872
	96.50			  10.00884			  -0.29522			 0.14064
	96.75			  10.09928			  -0.01793			 0.23705
	97.00			  10.46728			  0.25605			 0.26578
	97.25			  10.53952			  0.31304			 0.23262
	97.50			  10.25182			  0.47842			 0.07367
	97.75			  10.46045			  0.43568			 0.04648
	98.00			  10.49435			  0.18317			 0.02973
	98.25			  10.49310			  0.21104			 -0.20561
	98.50			  10.53690			  0.09893			 -0.39040
	98.75			  10.56488			  0.25523			 -0.23560
	99.00			  10.20848			  0.02419			 -0.18108
	99.25			  10.29926			  -0.48207			 -0.33168
	99.50			  10.45522			  -0.25661			 -0.58140
	99.75			  10.50072			  -0.08937			 -0.64445
	100.00			  10.48764			  -0.20499			 -0.76287
	100.25			  10.72733			  -0.24112			 -0.92299
	100.50			  10.44487			  -0.37863			 -0.63345
	100.75			  10.15331			  -0.36191			 -0.56880
	101.00			  10.18676			  -0.48806			 -0.26252
	101.25			  10.26422			  -0.74511			 -0.22250
	101.50			  10.34522			  -0.50809			 -0.41354
	101.75			  10.12976			  -0.49095			 -0.36359
	102.00			  9.99860			  -0.40692			 -0.29764
	102.25			  10.18846			  -0.58634			 -0.38383
	102.50			  10.03751			  -0.58469			 -0.23327
	102.75			  9.82364			  -0.48785			 -0.05879
	103.00			  9.92568			  -0.30120			 -0.38961
	103.25			  10.02420			  -0.42199			 -0.30920
	103.50			  10.27094			  -0.17030			 -0.15137
	103.75			  10.08881			  -0.32557			 -0.10776
	104.00			  9.82035			  -0.19425			 -0.21606
	104.25			  9.79589			  -0.06810			 -0.15734
	104.50			  9.76711			  -0.06046			 -0.23607
	104.75			  9.71273			  -0.19363			 -0.22068
	105.00			  9.87233			  -0.03403			 -0.12376
	105.25			  9.91784			  -0.11290			 -0.09144
	105.50			  10.17663			  -0.20747			 0.01220
	105.75			  10.23146			  -0.20231			 -0.00082
	106.00			  10.24181			  -0.20045			 -0.12982
	106.25			  10.31109			  -0.19012			 -0.01779
	106.50			  10.40870			  -0.38648			 0.07348
	106.75			  10.26764			  -0.38895			 0.08052
	107.00			  10.38583			  -0.37718			 -0.04494
	107.25			  10.63780			  -0.37409			 -0.36783
	107.50			  10.59685			  -0.63919			 -0.38770
	107.75			  10.56147			  -0.40134			 -0.41522
	108.00			  10.47445			  -0.37099			 -0.30533
	108.25			  10.74200			  -0.33300			 -0.31223
	108.50			  10.74405			  -0.50932			 -0.28663
	108.75			  10.65395			  -0.52460			 -0.47939
	109.00			  10.81776			  -0.62329			 -0.55905
	109.25			  10.83335			  -0.52109			 -0.59641
	109.50			  10.82209			  -0.69473			 -0.60523
	109.75			  10.80946			  -0.63300			 -0.66917
	110.00			  10.93459			  -0.17030			 -0.59515
	110.25			  10.85815			  -0.19033			 -0.62827
	110.50			  10.80559			  0.06012			 -0.73811
	110.75			  10.62153			  -0.09143			 -0.53863
	111.00			  10.77806			  -0.17299			 -0.42496
	111.25			  10.96667			  -0.30265			 -0.47524
	111.50			  10.86361			  -0.54628			 -0.43583
	111.75			  10.83301			  -0.33032			 -0.38280
	112.00			  10.53838			  -0.43334			 -0.18854
	112.25			  10.57376			  -0.57560			 -0.29754
	112.50			  10.55044			  -0.69638			 -0.32124
	112.75			  10.78785			  -0.77319			 -0.35220
	113.00			  10.96132			  -0.85557			 -0.28238
	113.25			  10.80730			  -0.84917			 -0.09200
	113.50			  10.57182			  -1.10850			 -0.23649
	113.75			  10.82709			  -1.36761			 -0.33140
	114.00			  10.68330			  -1.23630			 -0.43401
	114.25			  10.52450			  -1.39012			 -0.53392
	114.50			  10.35557			  -1.14298			 -0.49455
	114.75			  10.44077			  -1.05027			 -0.46209
	115.00			  10.30791			  -1.20967			 -0.11243
	115.25			  10.46614			  -1.32818			 -0.19372
	115.50			  10.48298			  -0.97388			 -0.30920
	115.75			  10.34442			  -0.70588			 -0.20650
	116.00			  10.34397			  -0.74078			 -0.18136
	116.25			  10.23760			  -0.91854			 -0.37725
	116.50			  10.07505			  -0.79198			 -0.44306
	116.75			  10.18255			  -0.52832			 -0.17735
	117.00			  10.16799			  -0.53534			 -0.31592
	117.25			  10.15092			  -0.81841			 -0.07497
	117.50			  10.02738			  -0.54442			 -0.05221
	117.75			  9.93888			  -0.66438			 -0.24409
	118.00			  9.88576			  -0.73912			 -0.18458
	118.25			  10.10860			  -0.94993			 -0.23103
	118.50			  10.23760			  -0.50189			 0.07595
	118.75			  10.38583			  -0.53555			 0.14713
	119.00			  10.42496			  -0.87849			 0.19922
	119.25			  10.37320			  -1.10499			 0.26793
	119.50			  10.36183			  -1.28688			 0.37991
	119.75			  10.09268			  -1.13451			 0.23280
	120.00			  9.80055			  -0.91483			 0.18444
	120.25			  9.79088			  -0.65241			 0.16937
	120.50			  9.99974			  -0.80313			 0.26942
	120.75			  10.00429			  -0.39701			 0.29913
	121.00			  9.97995			  -0.43417			 0.36690
	121.25			  10.09825			  -0.19116			 0.10091
	121.50			  10.17345			  -0.11373			 -0.33248
	121.75			  10.38833			  -0.27911			 -0.47296
	122.00			  10.46500			  -0.24732			 -0.11620
	122.25			  10.36581			  -0.41848			 0.06858
	122.50			  10.36501			  -0.49590			 0.21536
	122.75			  10.28572			  -0.44305			 -0.00441
	123.00			  10.36319			  -0.37264			 0.16835
	123.25			  10.30199			  -0.41683			 0.16923
	123.50			  10.06765			  -0.27870			 0.16951
	123.75			  10.20860			  -0.15440			 0.18551
	124.00			  10.32326			  0.07849			 0.11597
	124.25			  10.10292			  0.04587			 0.17362
	124.50			  10.22122			  0.09707			 0.44175
	124.75			  10.26252			  0.00210			 0.30696
	125.00			  10.16253			  0.03679			 -0.07945
	125.25			  10.17208			  -0.01875			 -0.12870
	125.50			  9.97858			  0.31449			 -0.12703
	125.75			  10.06356			  0.61944			 0.00968
	126.00			  9.98143			  0.18400			 0.03230
	126.25			  10.14558			  -0.12240			 0.05366
	126.50			  9.86255			  -0.12509			 0.01588
	126.75			  9.93194			  0.21104			 -0.14522
	127.00			  9.92136			  0.15323			 -0.29908
	127.25			  9.86983			  0.31903			 -0.29768
	127.50			  9.90680			  0.40678			 -0.35776
	127.75			  9.97710			  0.43279			 -0.10305
	128.00			  9.99485			  0.47388			 -0.13659
	128.25			  9.80476			  0.57587			 -0.06658
	128.50			  10.09632			  0.56287			 0.23798
	128.75			  10.31371			  0.49060			 0.01182
	129.00			  10.34203			  0.51889			 0.07502
	129.25			  10.21872			  0.54057			 0.05441
	129.50			  10.01578			  0.41689			 0.07190
	129.75			  9.96197			  0.46769			 -0.00473
	130.00			  10.05946			  0.29157			 0.25281
	130.25			  9.93012			  0.70616			 0.24251
	130.50			  9.81193			  0.81414			 0.28821
	130.75			  9.89417			  0.26679			 -0.01462
	131.00			  9.80112			  0.40740			 -0.05147
	131.25			  9.86573			  0.51435			 0.01980
	131.50			  9.76608			  0.38448			 0.06956
	131.75			  9.72957			  0.18730			 -0.00982
	132.00			  9.62980			  0.17140			 -0.06103
	132.25			  9.58680			  0.28021			 -0.03477
	132.50			  9.56371			  0.34112			 0.05576
	132.75			  9.41219			  0.32729			 0.06625
	133.00			  9.37647			  0.52199			 0.03011
	133.25			  9.19946			  0.46913			 -0.00245
	133.50			  9.25008			  0.14270			 -0.19820
	133.75			  9.28125			  0.00086			 0.03901
	134.00			  9.19912			  0.15984			 0.23239
	134.25			  9.12529			  0.37622			 0.15893
	134.50			  8.92008			  0.72040			 -0.04303
	134.75			  8.91518			  0.76294			 0.13873
	135.00			  9.10903			  1.13024			 0.36825
	135.25			  9.34143			  0.95247			 0.34950
	135.50			  9.53186			  0.87278			 0.19582
	135.75			  9.56280			  0.97663			 0.13430
	136.00			  9.49705			  0.69810			 0.11499
	136.25			  9.25759			  0.74435			 0.15291
	136.50			  9.29911			  0.40451			 0.06663
	136.75			  9.48067			  0.33844			 -0.08705
	137.00			  9.41776			  0.64773			 -0.03099
	137.25			  9.51832			  0.55337			 0.19778
	137.50			  9.55131			  0.62378			 -0.14941
	137.75			  9.44074			  0.51290			 -0.23225
	138.00			  9.52264			  0.33740			 -0.10025
	138.25			  9.50956			  0.42371			 -0.03888
	138.50			  9.50842			  0.46025			 -0.20585
	138.75			  9.25315			  0.36259			 -0.06779
	139.00			  9.13826			  0.43465			 -0.03678
	139.25			  9.04657			  0.45488			 0.11802
	139.50			  9.26339			  0.41462			 0.10109
	139.75			  9.49011			  0.50278			 0.29582
	140.00			  9.42322			  0.64050			 0.52958
	140.25			  9.32289			  0.78441			 0.52948
	140.50			  9.27409			  0.64731			 0.39320
	140.75			  9.26055			  0.59611			 0.22893
	141.00			  9.33369			  0.96589			 0.20095
	141.25			  9.19605			  0.81600			 0.34232
	141.50			  9.18934			  0.63637			 0.28574
	141.75			  9.21425			  0.62667			 0.33290
	142.00			  9.48533			  0.69129			 0.26802
	142.25			  9.47282			  0.54945			 0.08743
	142.50			  9.41969			  0.45839			 0.19876
	142.75			  9.31629			  0.66424			 0.08743
	143.00			  9.60318			  0.50051			 0.12208
	143.25			  9.39967			  0.56720			 0.28756
	143.50			  9.23404			  0.70058			 0.38807
	143.75			  9.54733			  0.76706			 0.25939
	144.00			  9.52663			  0.70554			 0.36508
	144.25			  9.62673			  0.79535			 0.36899
	144.50			  9.96402			  0.86390			 0.23980
	144.75			  9.63879			  0.65041			 0.28364
	145.00			  9.51548			  0.59363			 0.34936
	145.25			  9.33665			  0.64814			 0.07283
	145.50			  9.33199			  0.66940			 -0.00986
	145.75			  9.39262			  0.84862			 -0.41550
	146.00			  9.41753			  0.88558			 -0.34903
	146.25			  9.21300			  0.73713			 -0.14983
	146.50			  9.48852			  0.90519			 -0.10660
	146.75			  9.55063			  0.70099			 -0.08608
	147.00			  9.63174			  0.80278			 0.11247
	147.25			  9.53004			  0.95062			 0.11355
	147.50			  9.54938			  0.86596			 -0.16998
	147.75			  9.51514			  0.69439			 -0.34157
	148.00			  9.58146			  0.70368			 -0.23085
	148.25			  9.69669			  0.53355			 -0.26564
	148.50			  9.75641			  0.67353			 -0.36932
	148.75			  9.73400			  0.54924			 -0.19209
	149.00			  9.60603			  0.62522			 -0.12460
	149.25			  9.72251			  0.42515			 -0.42184
	149.50			  9.64482			  0.27505			 -0.32231
	149.75			  9.68623			  0.24594			 -0.45202
	150.00			  9.90134			  0.13259			 -0.23127
	150.25			  9.60205			  0.15447			 -0.16219
	150.50			  9.84082			  0.44952			 -0.28196
	150.75			  9.66348			  0.43754			 -0.02381
	151.00			  9.61297			  0.50733			 0.00786
	151.25			  9.82171			  0.34587			 0.09615
	151.50			  10.00156			  0.44064			 0.19223
	151.75			  10.14694			  0.49989			 -0.09130
	152.00			  10.42280			  0.31366			 -0.07152
	152.25			  10.20439			  0.44084			 0.10426
	152.50			  9.89383			  0.60065			 0.04993
	152.75			  10.25728			  0.57236			 -0.09750
	153.00			  10.05673			  0.63678			 0.14125
	153.25			  10.21326			  0.42742			 0.09410
	153.50			  10.27185			  0.08902			 0.09223
	153.75			  9.92318			  -0.00368			 -0.20142
	154.00			  9.89577			  0.01263			 -0.03337
	154.25			  9.84810			  -0.03073			 -0.03496
	154.50			  9.95378			  -0.04456			 0.05137
	154.75			  9.84435			  -0.01979			 0.25477
	155.00			  9.70454			  -0.09391			 0.20384
	155.25			  9.86858			  -0.23658			 0.31970
	155.50			  10.06276			  -0.31628			 0.09489
	155.75			  9.88450			  -0.49838			 -0.17674
	156.00			  9.92364			  -0.27044			 -0.17222
	156.25			  9.95685			  -0.23534			 -0.11289
	156.50			  9.80203			  -0.25991			 -0.03748
	156.75			  9.71967			  -0.57952			 -0.12124
	157.00			  9.65085			  -0.51056			 -0.08258
	157.25			  9.58385			  -0.59687			 -0.10179
	157.50			  9.39217			  -0.49487			 0.18491
	157.75			  9.30139			  -0.49508			 0.04559
	158.00			  9.42584			  -0.69329			 -0.00394
	158.25			  9.41571			  -0.57003			 0.06756
	158.50			  9.27682			  -0.69102			 0.03822
	158.75			  9.09082			  -0.48042			 0.07185
	159.00			  9.13997			  -0.44573			 0.27515
	159.25			  9.19207			  -0.71972			 0.24600
	159.50			  9.34416			  -0.84649			 0.31685
	159.75			  9.40218			  -0.87230			 0.37660
	160.00			  9.02530			  -0.70836			 0.56167
	160.25			  9.10300			  -0.54442			 0.49949
	160.50			  9.12017			  -0.52564			 0.42865
	160.75			  9.16693			  -0.49735			 0.29395
	161.00			  9.23439			  -0.36624			 0.01397
	161.25			  9.20378			  -0.50375			 0.31564
	161.50			  9.53777			  -0.32639			 0.09997
	161.75			  9.64641			  -0.53286			 0.06056
	162.00			  9.77166			  -0.52811			 -0.08943
	162.25			  9.83001			  -0.30306			 0.08533
	162.50			  9.93308			  0.00705			 0.12049
	162.75			  10.06981			  -0.18393			 0.09013
	163.00			  10.19404			  0.19639			 0.05548
	163.25			  10.23294			  0.00478			 -0.00394
	163.50			  10.11941			  0.39212			 -0.10576
	163.75			  9.94093			  0.82405			 -0.07068
	164.00			  10.01180			  0.49535			 0.05161
	164.25			  9.79885			  0.19762			 0.06205
	164.50			  9.73742			  -0.06211			 0.25920
	164.75			  9.42629			  0.01841			 0.26909
	165.00			  9.51411			  0.02336			 0.11630
	165.25			  9.50114			  0.05867			 0.19232
	165.50			  9.52264			  0.26142			 0.13813
	165.75			  9.62491			  0.20692			 0.10963
	166.00			  9.77177			  0.35041			 0.10842
	166.25			  10.08005			  0.14725			 -0.05142
	166.50			  10.17106			  0.01634			 0.24572