--------------TurbSim v2.00.* User Time Series Input File-----------------------
     Time series input from low-res turbsim run
--------------------------------------------------------------------------------
          3 nComp - Number of velocity components in the file
          1 nPoints - Number of time series points contained in this file (-)
          1 RefPtID - Index of the reference point (1-nPoints)
     Pointyi Pointzi ! nPoints listed in order of increasing height
       (m)     (m)
       2.26334   94.00000
--------Time Series-------------------------------------------------------------
Elapsed Time         Point01u             Point01v           Point01w
         (s)            (m/s)                (m/s)              (m/s)
	0.00			  9.79418			  0.36404			 -0.23831
	0.25			  9.80886			  0.32997			 -0.01430
	0.50			  9.78406			  0.21063			 0.11933
	0.75			  9.73628			  0.14436			 -0.25076
	1.00			  9.83582			  -0.19467			 -0.18201
	1.25			  9.81864			  -0.14862			 -0.14055
	1.50			  9.89349			  0.11751			 -0.14139
	1.75			  9.76483			  0.08076			 -0.28434
	2.00			  9.90714			  0.28042			 0.03067
	2.25			  10.01430			  0.22715			 0.06653
	2.50			  10.15559			  0.36672			 -0.18579
	2.75			  10.48366			  0.15881			 -0.02372
	3.00			  10.52632			  0.11937			 -0.03216
	3.25			  10.18118			  -0.02082			 -0.09396
	3.50			  10.25740			  -0.05674			 0.03510
	3.75			  10.40005			  -0.03445			 0.21802
	4.00			  10.38082			  -0.12591			 0.29600
	4.25			  10.20803			  0.06094			 0.29400
	4.50			  10.22521			  -0.01070			 0.33984
	4.75			  10.19017			  0.06074			 0.45010
	5.00			  9.99473			  -0.04456			 0.47431
	5.25			  9.87688			  -0.13954			 0.13052
	5.50			  9.87939			  0.13217			 0.08822
	5.75			  9.93456			  -0.16039			 0.14391
	6.00			  10.12442			  -0.35117			 0.10585
	6.25			  9.90316			  -0.31979			 0.14783
	6.50			  9.62605			  -0.30802			 -0.12348
	6.75			  9.60546			  -0.22027			 -0.32553
	7.00			  9.90760			  -0.12240			 -0.30440
	7.25			  10.08017			  -0.11373			 -0.41330
	7.50			  10.15650			  -0.12983			 -0.43103
	7.75			  10.16162			  -0.02309			 -0.35985
	8.00			  10.01089			  0.00231			 -0.42958
	8.25			  9.94798			  -0.10423			 -0.30132
	8.50			  10.03899			  0.04319			 -0.04205
	8.75			  10.30427			  -0.15275			 -0.04620
	9.00			  10.16890			  -0.25392			 -0.27865
	9.25			  9.99144			  -0.20602			 -0.22903
	9.50			  9.81648			  0.08840			 -0.18980
	9.75			  9.88792			  -0.03114			 -0.21242
	10.00			  10.00486			  0.24697			 -0.24190
	10.25			  9.81602			  0.17884			 -0.41881
	10.50			  9.91920			  0.31139			 -0.37086
	10.75			  10.09643			  0.18998			 -0.25589
	11.00			  10.12021			  0.09893			 -0.47897
	11.25			  10.19756			  0.51806			 -0.25020
	11.50			  10.36899			  0.91531			 -0.10660
	11.75			  10.21133			  0.83148			 0.15888
	12.00			  10.01669			  0.86039			 -0.14489
	12.25			  10.05457			  0.79638			 -0.14391
	12.50			  9.93160			  0.49515			 -0.02073
	12.75			  9.95901			  0.18131			 -0.15380
	13.00			  9.65892			  -0.13231			 -0.34861
	13.25			  9.54562			  -0.53761			 -0.19643
	13.50			  9.54244			  -0.29253			 0.05058
	13.75			  9.55279			  -0.13685			 -0.17119
	14.00			  9.46213			  -0.29191			 -0.10240
	14.25			  9.27363			  -0.12550			 -0.14983
	14.50			  9.52640			  -0.49570			 -0.24642
	14.75			  9.42095			  -0.61524			 -0.02045
	15.00			  9.69988			  -0.44140			 -0.02903
	15.25			  9.47942			  -0.41187			 -0.03225
	15.50			  9.32198			  -0.43520			 -0.24829
	15.75			  9.48226			  -0.33238			 0.31373
	16.00			  9.56644			  -0.29996			 0.48583
	16.25			  9.51002			  -0.52605			 0.58251
	16.50			  9.35019			  -0.40361			 0.46978
	16.75			  9.54699			  -0.20829			 0.36727
	17.00			  9.39524			  -0.40960			 0.14097
	17.25			  9.29547			  -0.36108			 -0.03104
	17.50			  9.63731			  -0.24277			 -0.25850
	17.75			  9.57372			  0.00272			 -0.28019
	18.00			  9.49887			  -0.10506			 -0.08304
	18.25			  9.71376			  -0.10630			 -0.06607
	18.50			  9.76404			  -0.13066			 -0.13598
	18.75			  9.88951			  -0.08524			 -0.34078
	19.00			  10.07118			  0.00974			 -0.27464
	19.25			  10.12385			  -0.46844			 -0.06621
	19.50			  10.33020			  -0.00059			 0.01154
	19.75			  10.40494			  -0.11311			 -0.21298
	20.00			  10.56443			  -0.17216			 -0.25179
	20.25			  10.60390			  -0.18971			 0.16476
	20.50			  10.60493			  -0.21160			 0.05935
	20.75			  10.63905			  0.03493			 -0.05221
	21.00			  10.44783			  0.16438			 -0.22394
	21.25			  10.34158			  0.27588			 -0.20375
	21.50			  10.14330			  0.42206			 0.04093
	21.75			  10.38435			  0.13444			 -0.00352
	22.00			  10.36683			  0.14043			 0.15188
	22.25			  10.11008			  0.17595			 0.13799
	22.50			  9.80783			  0.11813			 0.04475
	22.75			  9.49000			  0.25275			 0.32096
	23.00			  9.72035			  0.19019			 0.13850
	23.25			  9.67519			  0.16893			 -0.15207
	23.50			  9.71501			  0.16211			 -0.10650
	23.75			  9.72581			  0.01800			 -0.24059
	24.00			  9.88030			  0.07952			 -0.37888
	24.25			  9.84992			  0.34339			 -0.32040
	24.50			  9.77405			  0.69315			 -0.42618
	24.75			  9.89133			  0.42804			 -0.41582
	25.00			  9.81375			  0.09418			 -0.45985
	25.25			  9.65358			  0.26679			 -0.28350
	25.50			  9.60569			  0.54800			 0.02484
	25.75			  9.64687			  0.49164			 0.06975
	26.00			  9.76040			  0.59281			 0.03127
	26.25			  9.46599			  0.18173			 0.01975
	26.50			  9.55802			  0.41545			 0.17698
	26.75			  9.76938			  0.74043			 0.14456
	27.00			  9.94480			  0.76066			 0.00683
	27.25			  10.06003			  0.30623			 0.07633
	27.50			  9.85868			  0.46025			 -0.12968
	27.75			  9.69180			  0.31139			 -0.02773
	28.00			  9.97335			  0.23912			 -0.12287
	28.25			  10.07141			  0.21311			 -0.31559
	28.50			  9.89747			  0.37003			 -0.08370
	28.75			  10.03717			  0.28888			 -0.04023
	29.00			  10.14876			  0.41689			 -0.39395
	29.25			  10.24489			  0.26018			 0.03771
	29.50			  10.15593			  -0.00368			 0.12768
	29.75			  10.27844			  0.06136			 -0.12236
	30.00			  10.12715			  0.00643			 -0.43494
	30.25			  10.21110			  0.07209			 -0.45225
	30.50			  10.35750			  0.12061			 -0.46535
	30.75			  10.11384			  -0.11827			 -0.29675
	31.00			  10.14444			  -0.39535			 -0.35790
	31.25			  10.33748			  -0.07202			 -0.25888
	31.50			  10.45852			  0.09418			 -0.29209
	31.75			  10.38742			  -0.01194			 -0.34516
	32.00			  10.70696			  -0.11456			 -0.34460
	32.25			  10.55521			  -0.07450			 -0.03118
	32.50			  10.61482			  -0.12116			 -0.20809
	32.75			  10.72528			  -0.20582			 -0.27595
	33.00			  10.81936			  -0.13211			 -0.38947
	33.25			  10.73688			  -0.43561			 -0.07539
	33.50			  10.84416			  -0.73314			 -0.23276
	33.75			  10.78807			  -0.67574			 -0.15216
	34.00			  10.87840			  -0.66087			 0.10776
	34.25			  10.83642			  -0.66769			 0.12166
	34.50			  10.75326			  -0.53162			 0.01094
	34.75			  10.80787			  -0.42116			 -0.11439
	35.00			  10.79592			  -0.28654			 -0.11984
	35.25			  10.69218			  -0.18868			 0.05389
	35.50			  10.41677			  -0.21841			 0.11233
	35.75			  10.43520			  -0.02309			 0.16788
	36.00			  10.56284			  0.10595			 0.03976
	36.25			  10.44077			  -0.24339			 -0.05133
	36.50			  10.46910			  -0.14759			 0.21886
	36.75			  10.12453			  -0.25083			 0.09811
	37.00			  10.31769			  -0.32392			 0.17185
	37.25			  10.46091			  -0.28840			 0.15524
	37.50			  10.38139			  -0.35922			 0.25841
	37.75			  10.73461			  -0.30884			 0.31205
	38.00			  10.45101			  -0.27643			 0.16662
	38.25			  10.50698			  -0.29769			 0.19116
	38.50			  10.37923			  -0.37099			 0.18458
	38.75			  10.48377			  -0.06624			 0.26158
	39.00			  10.55794			  -0.04745			 0.39908
	39.25			  10.49140			  -0.23761			 0.70065
	39.50			  10.31803			  -0.40733			 0.78265
	39.75			  10.19404			  -0.51077			 0.69893
	40.00			  10.09939			  -0.59232			 0.31993
	40.25			  10.23158			  -0.81510			 0.01579
	40.50			  10.40335			  -0.93300			 0.00082
	40.75			  10.50107			  -0.72405			 -0.03995
	41.00			  10.80536			  -0.70857			 -0.12455
	41.25			  10.65543			  -0.60946			 -0.03463
	41.50			  10.58832			  -0.37512			 0.05259
	41.75			  10.43406			  -0.42529			 -0.05730
	42.00			  10.47820			  -0.50850			 0.13491
	42.25			  10.62927			  -0.77897			 0.20557
	42.50			  10.83597			  -0.80292			 0.32142
	42.75			  10.67045			  -0.85516			 0.37473
	43.00			  10.63132			  -0.73912			 0.33658
	43.25			  11.02309			  -0.67285			 0.19801
	43.50			  11.16700			  -0.25434			 0.44931
	43.75			  10.94130			  -0.01297			 0.50290
	44.00			  10.93596			  -0.19405			 0.30953
	44.25			  11.10352			  -0.17774			 0.32921
	44.50			  10.95768			  -0.28324			 0.46428
	44.75			  11.04835			  -0.42488			 0.47795
	45.00			  11.31636			  -0.33754			 0.54968
	45.25			  11.33092			  0.06404			 0.45999
	45.50			  11.34673			  -0.10547			 0.22054
	45.75			  11.42079			  -0.25062			 0.03430
	46.00			  11.29452			  -0.19446			 -0.08099
	46.25			  11.10147			  -0.31937			 -0.25622
	46.50			  10.88272			  -0.03156			 -0.18710
	46.75			  10.90638			  0.45303			 -0.20240
	47.00			  10.86895			  0.33389			 -0.25193
	47.25			  10.83926			  -0.05427			 -0.14937
	47.50			  10.83926			  -0.25000			 -0.25561
	47.75			  10.72653			  -0.16328			 -0.06527
	48.00			  10.78489			  -0.10609			 0.13202
	48.25			  10.78967			  -0.24050			 0.16420
	48.50			  10.66829			  -0.40341			 -0.04083
	48.75			  10.48844			  -0.53637			 0.12702
	49.00			  10.84825			  -0.48434			 0.05809
	49.25			  10.72983			  -0.55578			 0.03113
	49.50			  10.55669			  -0.89088			 0.18472
	49.75			  10.55271			  -0.55124			 -0.09820
	50.00			  10.35694			  -0.49405			 -0.13873
	50.25			  10.40414			  -0.34704			 -0.29745
	50.50			  10.56056			  -0.60079			 -0.10622
	50.75			  10.58377			  -0.79693			 0.02428
	51.00			  10.42371			  -0.62350			 -0.33257
	51.25			  10.62176			  -0.39680			 -0.15832
	51.50			  10.57398			  -0.72013			 -0.19144
	51.75			  10.86702			  -0.78661			 0.04918
	52.00			  10.76509			  -0.95839			 -0.02334
	52.25			  10.70594			  -1.17415			 -0.23630
	52.50			  11.02059			  -0.98193			 -0.56750
	52.75			  11.26050			  -0.97326			 -0.41671
	53.00			  11.24151			  -1.09239			 -0.27362
	53.25			  11.33183			  -0.87230			 -0.40262
	53.50			  11.20078			  -0.82729			 -0.36554
	53.75			  11.09670			  -0.69886			 -0.04046
	54.00			  10.91707			  -1.06844			 0.02381
	54.25			  10.89682			  -0.97739			 0.14610
	54.50			  10.88943			  -0.95943			 -0.00203
	54.75			  11.00216			  -0.72261			 -0.07782
	55.00			  10.83471			  -0.79714			 0.08505
	55.25			  10.71220			  -0.75853			 0.18327
	55.50			  10.89614			  -0.65592			 -0.05049
	55.75			  10.92413			  -0.47773			 -0.17534
	56.00			  10.74553			  -0.31979			 -0.06854
	56.25			  10.77852			  -0.35901			 -0.05221
	56.50			  10.92765			  -0.83493			 -0.03085
	56.75			  10.94972			  -0.89026			 0.08216
	57.00			  10.90888			  -0.86177			 -0.10552
	57.25			  10.78591			  -0.97326			 0.00021
	57.50			  10.93744			  -1.06204			 0.06350
	57.75			  11.17416			  -0.83905			 0.18416
	58.00			  10.98863			  -0.73252			 0.17805
	58.25			  11.00250			  -0.81717			 -0.03547
	58.50			  11.01638			  -0.59955			 0.00478
	58.75			  10.77465			  -0.74511			 -0.00889
	59.00			  10.90763			  -1.06266			 0.05529
	59.25			  10.71504			  -0.86610			 -0.04438
	59.50			  10.59366			  -0.53947			 -0.02885
	59.75			  10.74689			  -0.24071			 0.13729
	60.00			  10.55248			  -0.14821			 -0.06420
	60.25			  10.45659			  -0.45378			 0.02143
	60.50			  10.63041			  -0.28262			 -0.14312
	60.75			  10.55794			  -0.18372			 -0.31573
	61.00			  10.76714			  0.02626			 -0.22735
	61.25			  10.51039			  -0.08751			 -0.17511
	61.50			  10.70378			  -0.37966			 -0.13752
	61.75			  10.49310			  -0.34436			 0.09274
	62.00			  10.54407			  -0.11435			 0.02540
	62.25			  10.40961			  -0.21387			 -0.19587
	62.50			  10.47297			  0.26555			 -0.07777
	62.75			  10.57967			  -0.02722			 -0.19960
	63.00			  10.61619			  -0.00079			 -0.15664
	63.25			  10.44282			  -0.03238			 0.03267
	63.50			  10.37855			  0.05888			 0.02703
	63.75			  10.49617			  0.13548			 -0.04163
	64.00			  10.75281			  0.33534			 0.05016
	64.25			  10.70765			  0.21745			 0.13556
	64.50			  10.65873			  0.40162			 -0.09144
	64.75			  10.49435			  0.41504			 -0.10594
	65.00			  10.45454			  0.51228			 0.02092
	65.25			  10.56079			  0.65722			 -0.11098
	65.50			  10.58650			  0.75137			 -0.20543
	65.75			  10.58616			  0.88413			 -0.14577
	66.00			  10.82038			  0.72701			 -0.31219
	66.25			  10.90194			  0.91366			 -0.00110
	66.50			  10.90411			  0.74456			 0.31797
	66.75			  10.89739			  0.73011			 0.41438
	67.00			  10.88056			  0.63410			 0.42431
	67.25			  10.84620			  0.48936			 0.66782
	67.50			  10.87419			  0.46665			 0.41839
	67.75			  10.74576			  0.38468			 0.35957
	68.00			  10.81640			  0.20175			 0.17922
	68.25			  10.85735			  0.25688			 0.10002
	68.50			  11.26653			  0.16335			 0.11000
	68.75			  11.23036			  0.16397			 0.24642
	69.00			  11.12047			  0.06941			 0.37692
	69.25			  10.93141			  -0.10506			 0.30295
	69.50			  10.55703			  0.14745			 0.39605
	69.75			  10.32065			  0.19618			 0.42762
	70.00			  10.22145			  0.22694			 0.50574
	70.25			  10.25911			  0.09852			 0.47426
	70.50			  10.25433			  0.29549			 0.25020
	70.75			  10.38026			  0.56658			 -0.07735
	71.00			  10.51722			  0.62708			 0.01052
	71.25			  10.44043			  0.61965			 0.11882
	71.50			  10.37252			  0.39026			 0.26583
	71.75			  10.23237			  0.45777			 0.08234
	72.00			  10.32895			  0.39315			 0.11835
	72.25			  10.33908			  0.32336			 0.19503
	72.50			  10.64406			  0.43671			 0.06476
	72.75			  10.75281			  0.48585			 0.21657
	73.00			  10.64144			  0.28641			 0.04223
	73.25			  10.40881			  0.12949			 -0.18556
	73.50			  10.41029			  0.16851			 0.00091
	73.75			  10.36080			  -0.04209			 0.05207
	74.00			  10.29471			  0.24532			 -0.12777
	74.25			  10.64178			  0.06301			 -0.13272
	74.50			  10.79149			  0.10100			 -0.06695
	74.75			  10.54611			  0.14023			 -0.03626
	75.00			  10.34408			  0.25729			 0.02595
	75.25			  10.49344			  0.07539			 -0.06075
	75.50			  10.65657			  -0.05303			 0.06136
	75.75			  10.46717			  -0.25000			 0.29731
	76.00			  10.85849			  0.02977			 -0.09648
	76.25			  10.96212			  0.08923			 -0.24101
	76.50			  11.01070			  -0.30079			 -0.07796
	76.75			  10.99716			  -0.52791			 -0.01891
	77.00			  10.83574			  -0.37595			 -0.01313
	77.25			  10.85872			  -0.48930			 0.05478
	77.50			  10.93016			  -0.65550			 0.09797
	77.75			  10.86418			  -0.69453			 0.31153
	78.00			  11.02924			  -0.87498			 0.04475
	78.25			  10.92617			  -0.96479			 0.10445
	78.50			  10.87066			  -0.88386			 0.20487
	78.75			  10.88090			  -0.61297			 0.15132
	79.00			  10.86224			  -0.64456			 0.17889
	79.25			  10.63359			  -0.61545			 0.22586
	79.50			  10.78853			  -0.57292			 0.03841
	79.75			  10.91605			  -0.93527			 -0.02255
	80.00			  10.98806			  -1.23341			 0.34581
	80.25			  11.04186			  -1.15516			 0.28005
	80.50			  11.05301			  -1.26789			 0.29087
	80.75			  11.18042			  -1.32632			 0.43257
	81.00			  11.25539			  -1.06369			 0.53807
	81.25			  11.20374			  -0.77360			 0.71591
	81.50			  11.27745			  -0.74841			 0.49483
	81.75			  11.28553			  -0.89253			 0.52272
	82.00			  11.25049			  -0.86734			 0.48303
	82.25			  11.39474			  -0.94518			 0.42869
	82.50			  11.46003			  -1.21545			 0.17231
	82.75			  11.24822			  -0.98193			 -0.06262
	83.00			  11.29588			  -0.88448			 -0.05832
	83.25			  11.41305			  -0.97388			 -0.33108
	83.50			  11.23548			  -0.83596			 -0.44688
	83.75			  11.34958			  -0.63713			 -0.45733
	84.00			  11.16870			  -0.87333			 -0.46988
	84.25			  11.22206			  -1.00836			 -0.41218
	84.50			  11.01775			  -0.59976			 -0.29997
	84.75			  11.05404			  -0.40134			 -0.18696
	85.00			  11.28542			  -0.49776			 0.07241
	85.25			  11.24651			  -0.66025			 -0.06527
	85.50			  11.38245			  -0.80457			 -0.36680
	85.75			  11.47687			  -0.84360			 -0.13425
	86.00			  11.57971			  -0.66211			 -0.06737
	86.25			  11.48643			  -0.59811			 0.01420
	86.50			  11.22297			  -0.65943			 0.12502
	86.75			  11.31727			  -0.37409			 0.26373
	87.00			  11.40554			  -0.32041			 0.12077
	87.25			  11.28200			  -0.10774			 0.01677
	87.50			  11.08714			  0.09749			 -0.06056
	87.75			  11.03538			  0.16335			 -0.14125
	88.00			  11.09692			  0.16087			 -0.08011
	88.25			  10.95803			  0.19349			 0.29987
	88.50			  11.13310			  0.38943			 0.17371
	88.75			  11.13389			  0.16005			 0.03099
	89.00			  10.90854			  0.23561			 0.13589
	89.25			  10.78921			  0.14291			 0.14535
	89.50			  10.84768			  0.12970			 -0.18617
	89.75			  10.98476			  -0.01958			 -0.29423
	90.00			  10.87396			  -0.05654			 -0.08677
	90.25			  11.02605			  -0.15502			 0.07311
	90.50			  11.09123			  -0.06727			 0.19479
	90.75			  11.05870			  -0.15564			 0.39087
	91.00			  11.15403			  -0.05200			 0.04209
	91.25			  11.03106			  -0.11930			 -0.02456
	91.50			  11.03276			  -0.29707			 -0.15342
	91.75			  11.04391			  -0.00286			 -0.10450
	92.00			  11.00421			  -0.01917			 -0.02824
	92.25			  11.03754			  -0.20582			 -0.28784
	92.50			  10.94915			  -0.25846			 -0.20240
	92.75			  10.91878			  -0.33321			 -0.19675
	93.00			  10.96849			  -0.34332			 -0.20580
	93.25			  11.18941			  -0.21552			 -0.15767
	93.50			  11.11876			  -0.20705			 -0.22502
	93.75			  11.21295			  -0.20334			 -0.30878
	94.00			  11.27768			  -0.18125			 -0.23752
	94.25			  11.37540			  -0.33321			 0.14554
	94.50			  11.25266			  -0.20953			 0.07829
	94.75			  11.35981			  -0.03259			 0.04475
	95.00			  11.56025			  -0.16184			 -0.09815
	95.25			  11.78197			  -0.21015			 -0.26191
	95.50			  12.00959			  -0.26136			 -0.05394
	95.75			  11.86524			  -0.05138			 -0.05492
	96.00			  11.58835			  -0.18063			 -0.01966
	96.25			  11.47994			  -0.14924			 -0.06742
	96.50			  11.61474			  -0.40774			 0.21018
	96.75			  11.74170			  -0.40320			 0.26737
	97.00			  11.95340			  -0.16266			 0.31713
	97.25			  11.84146			  -0.03465			 -0.06863
	97.50			  11.65012			  -0.25991			 -0.39390
	97.75			  11.63567			  -0.39102			 -0.28257
	98.00			  11.28428			  -0.59377			 -0.31195
	98.25			  11.22695			  -0.66170			 -0.23346
	98.50			  11.35981			  -0.39143			 -0.17096
	98.75			  11.27108			  -0.33052			 -0.18906
	99.00			  11.27063			  -0.54339			 0.13836
	99.25			  11.78765			  -0.56424			 -0.18038
	99.50			  11.74363			  -0.35984			 -0.35953
	99.75			  11.66878			  -0.36480			 -0.16224
	100.00			  11.73339			  -0.42178			 0.00142
	100.25			  11.84089			  -0.64374			 0.13952
	100.50			  11.82849			  -0.48228			 0.03678
	100.75			  11.87616			  -0.18145			 0.06635
	101.00			  11.96102			  -0.27519			 -0.03780
	101.25			  11.91745			  -0.21490			 -0.22973
	101.50			  11.97831			  -0.03341			 -0.41410
	101.75			  12.02233			  -0.00967			 -0.53676
	102.00			  12.03815			  0.12206			 -0.53811
	102.25			  12.11095			  0.11772			 -0.81348
	102.50			  12.13825			  0.30829			 -0.54753
	102.75			  11.93372			  0.19597			 -0.45836
	103.00			  11.84010			  0.17244			 -0.08957
	103.25			  11.64489			  0.19349			 0.11289
	103.50			  11.49200			  0.14787			 -0.04680
	103.75			  11.25982			  0.28909			 -0.00077
	104.00			  11.32091			  0.11008			 -0.01551
	104.25			  11.46913			  0.23995			 0.03729
	104.50			  11.54649			  0.22261			 0.00473
	104.75			  11.68425			  -0.07822			 -0.14246
	105.00			  11.68175			  -0.30203			 -0.25249
	105.25			  11.50030			  -0.30327			 -0.04177
	105.50			  11.54808			  -0.50478			 -0.04839
	105.75			  11.47118			  -0.53678			 0.10594
	106.00			  11.38313			  -0.49095			 -0.19251
	106.25			  11.22717			  -0.37099			 -0.08584
	106.50			  11.33194			  -0.40072			 -0.26909
	106.75			  11.43387			  -0.19074			 0.03113
	107.00			  11.51293			  -0.11579			 0.23803
	107.25			  11.53944			  -0.48021			 0.07567
	107.50			  11.50633			  -0.39948			 -0.11163
	107.75			  11.39064			  -0.25764			 -0.14657
	108.00			  11.02776			  -0.16968			 -0.00763
	108.25			  11.00262			  -0.43025			 0.17087
	108.50			  11.06803			  -0.41105			 -0.00422
	108.75			  11.15130			  -0.72818			 -0.11443
	109.00			  11.44980			  -0.69349			 -0.33360
	109.25			  11.37176			  -0.79384			 -0.49203
	109.50			  11.65080			  -0.63878			 -0.58821
	109.75			  11.61804			  -0.44594			 -0.64235
	110.00			  11.40759			  -0.23121			 -0.60803
	110.25			  11.27609			  -0.31173			 -0.20020
	110.50			  11.36698			  -0.35860			 -0.33961
	110.75			  11.72952			  -0.24814			 -0.23915
	111.00			  11.84556			  -0.18723			 -0.58060
	111.25			  11.80062			  -0.39639			 -0.41456
	111.50			  11.88116			  -0.59790			 -0.32515
	111.75			  11.66252			  -0.37512			 -0.31545
	112.00			  11.65865			  -0.47464			 -0.35262
	112.25			  11.85739			  -0.53637			 -0.17875
	112.50			  11.91040			  -0.63259			 0.09517
	112.75			  11.89458			  -0.58820			 0.13952
	113.00			  11.96784			  -0.33837			 0.22105
	113.25			  11.82963			  -0.24814			 0.38476
	113.50			  12.14565			  -0.12571			 0.17026
	113.75			  12.17863			  -0.29831			 0.35430
	114.00			  12.07386			  -0.47794			 0.05422
	114.25			  11.99913			  -0.45027			 0.06140
	114.50			  12.04611			  -0.63341			 0.07255
	114.75			  11.85545			  -0.85557			 0.02232
	115.00			  11.84419			  -0.63031			 0.24512
	115.25			  11.94418			  -0.33548			 0.09899
	115.50			  11.81939			  -0.59315			 -0.15478
	115.75			  11.70939			  -0.59274			 -0.13803
	116.00			  11.62896			  -0.21160			 0.13313
	116.25			  11.51464			  -0.34332			 0.09829
	116.50			  11.50497			  -0.35447			 0.04214
	116.75			  11.37096			  -0.32536			 0.07064
	117.00			  11.21466			  -0.43376			 -0.05986
	117.25			  11.10739			  -0.48248			 -0.19372
	117.50			  11.24788			  -0.59728			 -0.25356
	117.75			  11.20147			  -0.66418			 -0.08715
	118.00			  11.27780			  -0.68833			 0.20529
	118.25			  11.23400			  -0.65963			 0.06481
	118.50			  11.29406			  -0.73520			 0.10608
	118.75			  11.42750			  -0.64601			 0.21294
	119.00			  11.48961			  -0.49095			 0.20170
	119.25			  11.29327			  -0.52770			 0.24437
	119.50			  11.13879			  -0.50685			 0.33887
	119.75			  10.87749			  -0.12343			 0.32921
	120.00			  10.89523			  -0.01628			 0.40673
	120.25			  11.06427			  -0.42942			 0.42510
	120.50			  11.09089			  -0.60781			 0.40556
	120.75			  10.93846			  -0.73933			 0.38686
	121.00			  10.93380			  -0.87684			 0.48065
	121.25			  10.93618			  -0.84277			 0.50901
	121.50			  10.98123			  -0.73025			 0.49520
	121.75			  11.13844			  -0.63155			 0.63606
	122.00			  10.92492			  -0.86755			 0.67337
	122.25			  10.89512			  -1.00320			 0.47902
	122.50			  10.85314			  -0.84566			 0.55294
	122.75			  10.97862			  -0.69308			 0.32730
	123.00			  10.92799			  -0.59893			 0.24633
	123.25			  10.96804			  -0.81366			 0.02442
	123.50			  10.84836			  -0.88448			 -0.05389
	123.75			  10.82561			  -0.79735			 -0.11821
	124.00			  10.99306			  -0.85619			 0.06275
	124.25			  10.74257			  -1.02322			 0.18640
	124.50			  10.82470			  -1.02157			 0.34036
	124.75			  10.77772			  -0.94208			 0.27138
	125.00			  10.68592			  -0.98090			 0.05175
	125.25			  10.80320			  -0.83885			 -0.12479
	125.50			  10.65668			  -0.77257			 -0.17161
	125.75			  10.80605			  -0.77856			 0.02162
	126.00			  10.83141			  -0.70815			 -0.09037
	126.25			  10.89819			  -0.59150			 -0.12306
	126.50			  10.74348			  -0.53162			 0.07176
	126.75			  10.79023			  -0.37223			 0.07483
	127.00			  10.70651			  -0.24793			 0.12530
	127.25			  10.74587			  -0.20086			 0.36354
	127.50			  10.60754			  0.03389			 0.53345
	127.75			  10.58308			  0.10100			 0.51004
	128.00			  10.89830			  -0.03238			 0.37963
	128.25			  10.67159			  -0.07037			 0.34092
	128.50			  10.78648			  0.14002			 0.39926
	128.75			  10.89341			  -0.29274			 0.21275
	129.00			  10.89990			  0.01820			 0.53597
	129.25			  10.86008			  0.41689			 0.44814
	129.50			  10.85815			  0.33823			 0.31363
	129.75			  10.83938			  0.44786			 0.35640
	130.00			  10.49310			  0.42495			 0.36452
	130.25			  10.37502			  0.14332			 0.18206
	130.50			  10.69331			  0.22591			 0.09559
	130.75			  10.72596			  -0.00843			 0.31886
	131.00			  10.91980			  -0.27478			 0.31895
	131.25			  10.90524			  -0.07078			 0.19437
	131.50			  10.71186			  -0.01834			 0.18267
	131.75			  10.83665			  -0.21552			 0.17791
	132.00			  10.94620			  -0.37842			 0.16998
	132.25			  11.03470			  -0.25681			 0.09377
	132.50			  11.07690			  -0.56156			 0.19759
	132.75			  11.08634			  -0.64105			 0.17203
	133.00			  10.88056			  -0.74800			 0.28164
	133.25			  10.84404			  -0.51449			 0.40561
	133.50			  10.98430			  -0.54029			 0.19414
	133.75			  11.03379			  -0.76679			 0.08342
	134.00			  11.31022			  -0.68338			 0.13467
	134.25			  11.24310			  -0.58861			 0.01070
	134.50			  11.11660			  -0.44614			 -0.08062
	134.75			  10.85701			  -0.57684			 -0.22334
	135.00			  11.06143			  -0.56404			 -0.23141
	135.25			  10.96815			  -0.72715			 -0.26140
	135.50			  10.70014			  -0.43623			 -0.20561
	135.75			  10.80548			  -0.26528			 -0.44768
	136.00			  10.69115			  -0.13933			 -0.15655
	136.25			  10.76862			  -0.28159			 0.05576
	136.50			  10.97600			  -0.36831			 -0.07367
	136.75			  11.01388			  -0.17629			 -0.10296
	137.00			  10.79524			  -0.15853			 -0.07246
	137.25			  10.52655			  -0.17608			 0.02334
	137.50			  10.76828			  -0.26197			 0.03570
	137.75			  10.86827			  -0.30533			 0.17334
	138.00			  10.88727			  -0.36232			 -0.01229
	138.25			  10.98248			  -0.55929			 0.01929
	138.50			  10.81708			  -0.40877			 0.31247
	138.75			  10.60743			  -0.28531			 0.15156
	139.00			  10.43486			  -0.44759			 -0.03402
	139.25			  10.47888			  -0.44573			 0.40202
	139.50			  10.65543			  -0.10836			 0.15692
	139.75			  10.53667			  -0.19074			 -0.03818
	140.00			  10.74109			  -0.49941			 0.18598
	140.25			  10.75213			  -0.27932			 0.06038
	140.50			  11.10739			  -0.11352			 0.11644
	140.75			  11.35777			  -0.17608			 -0.06621
	141.00			  11.33308			  0.12495			 0.20990
	141.25			  11.25994			  -0.12178			 0.05972
	141.50			  11.26380			  0.11070			 0.08491
	141.75			  11.25686			  0.18544			 0.21387
	142.00			  11.09522			  0.26225			 0.10086
	142.25			  10.98521			  0.06487			 0.22819
	142.50			  11.06882			  0.09129			 0.04573
	142.75			  10.90536			  0.25936			 0.10179
	143.00			  10.50744			  0.42329			 0.12651
	143.25			  10.32634			  0.18111			 0.16107
	143.50			  10.23977			  0.22674			 0.18122
	143.75			  10.34340			  0.35805			 0.07866
	144.00			  10.56215			  0.27608			 0.03346
	144.25			  10.53030			  0.21476			 0.12824
	144.50			  10.49060			  -0.00348			 0.16186
	144.75			  10.31166			  -0.08524			 0.02637
	145.00			  10.37150			  -0.17918			 0.11844
	145.25			  10.60766			  -0.11724			 0.21825
	145.50			  10.72938			  -0.35179			 0.23560
	145.75			  10.65339			  0.06032			 0.22450
	146.00			  10.51392			  0.03018			 0.13813
	146.25			  10.36342			  0.15179			 -0.18686
	146.50			  10.42144			  0.00726			 -0.16420
	146.75			  10.44931			  -0.09164			 -0.29885
	147.00			  10.55590			  -0.05798			 -0.02297
	147.25			  10.83164			  0.04153			 0.00609
	147.50			  10.88181			  0.02564			 -0.06583
	147.75			  10.71493			  0.04339			 0.04484
	148.00			  10.62017			  -0.01772			 -0.14848
	148.25			  10.75656			  -0.02495			 -0.30165
	148.50			  10.76384			  -0.18785			 -0.69506
	148.75			  10.72255			  -0.40403			 -0.66544
	149.00			  10.91776			  -0.50272			 -0.20795
	149.25			  10.77670			  -0.12798			 -0.19032
	149.50			  10.69684			  -0.21965			 -0.21186
	149.75			  10.99670			  -0.38049			 -0.21504
	150.00			  11.04641			  -0.53513			 -0.25748
	150.25			  11.06530			  -0.36376			 -0.00972
	150.50			  11.18463			  -0.65695			 0.22586
	150.75			  11.34855			  -0.41228			 0.10860
	151.00			  11.32239			  -0.31049			 -0.12194
	151.25			  11.18895			  0.08820			 -0.35645
	151.50			  10.98351			  -0.11414			 -0.50449
	151.75			  10.95575			  -0.03548			 -0.08472
	152.00			  10.66010			  -0.02392			 -0.20958
	152.25			  10.75463			  0.34277			 -0.34437
	152.50			  10.83471			  0.44435			 -0.25034
	152.75			  10.81856			  0.34050			 -0.21326
	153.00			  10.80070			  0.15778			 -0.35048
	153.25			  10.70219			  0.07312			 -0.23019
	153.50			  10.78773			  -0.23679			 -0.14265
	153.75			  10.76509			  0.02398			 -0.02735
	154.00			  10.63826			  0.41091			 -0.13705
	154.25			  10.53644			  0.20630			 -0.21490
	154.50			  10.52780			  0.04442			 -0.07591
	154.75			  10.60402			  0.15117			 -0.32707
	155.00			  10.74246			  -0.03651			 -0.18976
	155.25			  10.93800			  -0.23472			 0.00972
	155.50			  10.62495			  0.10203			 -0.27296
	155.75			  10.68126			  0.22798			 -0.25197
	156.00			  10.79490			  0.01263			 -0.10580
	156.25			  10.70128			  0.20939			 -0.18388
	156.50			  10.62813			  0.43444			 -0.25174
	156.75			  10.68057			  0.66053			 -0.05506
	157.00			  10.94142			  0.50691			 0.09764
	157.25			  11.09260			  0.24945			 0.17325
	157.50			  11.18838			  0.27133			 0.07138
	157.75			  11.13879			  0.36590			 0.05907
	158.00			  11.26471			  0.77904			 -0.21541
	158.25			  11.32068			  0.79638			 -0.25650
	158.50			  11.42841			  0.76211			 -0.27982
	158.75			  11.33320			  0.62419			 -0.08220
	159.00			  11.25061			  0.46521			 -0.07931
	159.25			  11.37767			  0.40864			 0.05646
	159.50			  11.40645			  0.28764			 -0.04060
	159.75			  11.47505			  0.41235			 -0.34554
	160.00			  11.49803			  0.31345			 -0.16345
	160.25			  11.48267			  0.37044			 0.01625
	160.50			  11.56321			  0.35330			 -0.32119
	160.75			  11.55115			  0.34855			 -0.27921
	161.00			  11.59438			  0.62006			 -0.46783
	161.25			  11.65137			  0.35000			 -0.24129
	161.50			  11.59165			  0.28806			 -0.53676
	161.75			  11.62680			  0.03906			 -0.39768
	162.00			  11.62214			  0.14952			 -0.31326
	162.25			  11.42409			  0.02564			 -0.06122
	162.50			  11.34468			  0.13114			 0.03981
	162.75			  11.24265			  -0.06727			 -0.22488
	163.00			  11.03652			  0.03451			 -0.21438
	163.25			  11.27563			  0.24284			 -0.31853
	163.50			  11.48142			  0.43217			 -0.50630
	163.75			  11.28257			  0.36796			 -0.56782
	164.00			  11.28838			  0.26225			 -0.47286
	164.25			  11.15744			  0.35929			 -0.64380