--------------TurbSim v2.00.* User Time Series Input File-----------------------
     Time series input from low-res turbsim run
--------------------------------------------------------------------------------
          3 nComp - Number of velocity components in the file
          1 nPoints - Number of time series points contained in this file (-)
          1 RefPtID - Index of the reference point (1-nPoints)
     Pointyi Pointzi ! nPoints listed in order of increasing height
       (m)     (m)
       -2.42341   94.00000
--------Time Series-------------------------------------------------------------
Elapsed Time         Point01u             Point01v           Point01w
         (s)            (m/s)                (m/s)              (m/s)
	0.00			  10.19352			  -0.14945			 0.13636
	0.25			  10.37003			  0.03120			 -0.06018
	0.50			  10.46202			  -0.01683			 -0.07344
	0.75			  10.55197			  -0.16251			 0.04842
	1.00			  10.60043			  -0.14858			 0.02271
	1.25			  10.54147			  -0.21315			 0.03595
	1.50			  10.55719			  -0.25109			 0.03867
	1.75			  10.65009			  -0.15102			 -0.07685
	2.00			  10.71714			  -0.15607			 -0.20472
	2.25			  10.67035			  -0.15763			 0.08996
	2.50			  10.76597			  -0.28538			 0.13553
	2.75			  10.64291			  -0.41957			 0.10123
	3.00			  10.69892			  -0.48153			 0.00642
	3.25			  10.63807			  -0.42340			 -0.07360
	3.50			  10.63369			  -0.38215			 -0.02321
	3.75			  10.72485			  -0.42670			 0.11276
	4.00			  10.88434			  -0.32263			 0.07419
	4.25			  10.80626			  -0.12648			 0.14823
	4.50			  10.71041			  -0.15676			 0.06757
	4.75			  10.73301			  -0.18444			 0.00729
	5.00			  10.76673			  -0.19697			 0.01647
	5.25			  10.79182			  -0.33672			 0.07440
	5.50			  10.76703			  -0.31201			 0.04212
	5.75			  10.81216			  -0.34630			 0.10941
	6.00			  10.76060			  -0.45455			 0.15575
	6.25			  10.71442			  -0.32628			 0.09249
	6.50			  10.67700			  -0.40338			 0.11481
	6.75			  10.64336			  -0.48744			 0.09489
	7.00			  10.56067			  -0.44010			 0.03855
	7.25			  10.61237			  -0.56768			 0.07753
	7.50			  10.53618			  -0.44654			 0.30630
	7.75			  10.44214			  -0.38911			 0.23092
	8.00			  10.43231			  -0.42740			 0.26149
	8.25			  10.54502			  -0.41643			 0.13535
	8.50			  10.48069			  -0.28120			 0.05441
	8.75			  10.54842			  -0.23108			 0.05895
	9.00			  10.50269			  -0.16999			 0.09291
	9.25			  10.50254			  -0.17921			 0.07587
	9.50			  10.55424			  -0.32437			 0.01275
	9.75			  10.57457			  -0.14423			 0.05727
	10.00			  10.48742			  -0.24605			 0.07158
	10.25			  10.56346			  -0.23787			 -0.04421
	10.50			  10.52181			  -0.15154			 0.02762
	10.75			  10.49951			  -0.09933			 0.08795
	11.00			  10.54184			  -0.15920			 0.06446
	11.25			  10.44184			  -0.12369			 -0.04534
	11.50			  10.35136			  -0.12282			 -0.00472
	11.75			  10.43692			  -0.19644			 0.00047
	12.00			  10.44569			  -0.01457			 0.03894
	12.25			  10.54147			  0.00823			 0.03124
	12.50			  10.63920			  -0.10490			 0.11780
	12.75			  10.59257			  -0.19557			 0.09063
	13.00			  10.70210			  -0.03528			 0.07783
	13.25			  10.66241			  -0.13379			 0.19524
	13.50			  10.58395			  -0.17730			 0.20665
	13.75			  10.58077			  -0.12178			 0.26280
	14.00			  10.61751			  -0.09045			 0.16817
	14.25			  10.61381			  0.01067			 0.11340
	14.50			  10.63709			  -0.08784			 0.11732
	14.75			  10.62333			  -0.12509			 0.11359
	15.00			  10.59793			  -0.07340			 -0.00440
	15.25			  10.57495			  -0.09028			 -0.03473
	15.50			  10.58667			  -0.12770			 0.01766
	15.75			  10.59929			  -0.17660			 0.07313
	16.00			  10.50511			  -0.26885			 0.12606
	16.25			  10.42052			  -0.10055			 0.03422
	16.50			  10.39686			  -0.13518			 -0.04015
	16.75			  10.50140			  -0.23386			 -0.14119
	17.00			  10.51440			  -0.04155			 -0.09103
	17.25			  10.61532			  -0.11464			 -0.12427
	17.50			  10.62552			  -0.26554			 -0.20677
	17.75			  10.56709			  -0.22516			 -0.19094
	18.00			  10.56755			  -0.14388			 -0.17489
	18.25			  10.63323			  -0.01196			 -0.13162
	18.50			  10.62991			  -0.11917			 -0.13743
	18.75			  10.51025			  -0.30627			 -0.14578
	19.00			  10.47215			  -0.27755			 -0.22482
	19.25			  10.55613			  -0.11743			 -0.21300
	19.50			  10.55182			  -0.05286			 -0.12671
	19.75			  10.54865			  -0.25440			 0.05287
	20.00			  10.58561			  -0.26606			 0.04558
	20.25			  10.71676			  -0.17904			 -0.03934
	20.50			  10.79500			  -0.20602			 -0.10484
	20.75			  10.78207			  -0.15868			 -0.09077
	21.00			  10.71737			  -0.18217			 -0.04310
	21.25			  10.67609			  -0.16842			 -0.05458
	21.50			  10.67299			  -0.13292			 -0.21184
	21.75			  10.64435			  -0.15259			 -0.22272
	22.00			  10.56006			  -0.06208			 -0.15520
	22.25			  10.41266			  -0.03441			 -0.17141
	22.50			  10.46346			  -0.18635			 -0.24568
	22.75			  10.50458			  -0.18322			 -0.13340
	23.00			  10.48999			  -0.14371			 -0.09296
	23.25			  10.43481			  -0.03250			 0.00482
	23.50			  10.32346			  -0.13866			 0.11352
	23.75			  10.45862			  -0.28138			 0.08578
	24.00			  10.36345			  -0.38110			 0.19611
	24.25			  10.24697			  -0.35552			 0.19485
	24.50			  10.16654			  -0.21089			 0.10692
	24.75			  10.11355			  -0.07079			 0.05759
	25.00			  10.19020			  -0.07026			 0.00360
	25.25			  10.10848			  -0.01353			 -0.08178
	25.50			  10.29020			  0.06932			 -0.07095
	25.75			  10.35990			  0.18645			 -0.01834
	26.00			  10.59566			  0.13737			 0.17590
	26.25			  10.43730			  0.02807			 0.01552
	26.50			  10.37245			  -0.06278			 -0.15774
	26.75			  10.41395			  -0.06870			 -0.08886
	27.00			  10.38605			  0.05209			 -0.10852
	27.25			  10.35650			  0.07628			 -0.00672
	27.50			  10.39346			  -0.01405			 0.03998
	27.75			  10.41304			  0.13754			 0.05257
	28.00			  10.46867			  0.11213			 0.03993
	28.25			  10.49400			  0.02877			 -0.02484
	28.50			  10.47283			  0.21952			 0.00356
	28.75			  10.46452			  0.18175			 0.00333
	29.00			  10.45960			  0.26216			 0.05042
	29.25			  10.34402			  0.37633			 0.01750
	29.50			  10.21053			  0.17705			 0.02133
	29.75			  10.24938			  0.26546			 -0.13750
	30.00			  10.29444			  0.31454			 -0.21240
	30.25			  10.26677			  0.19115			 -0.26067
	30.50			  10.26435			  0.12118			 -0.36609
	30.75			  10.16714			  0.21047			 -0.24451
	31.00			  10.11778			  0.09490			 -0.21143
	31.25			  10.14998			  0.08255			 -0.18093
	31.50			  10.22754			  0.28600			 -0.27575
	31.75			  10.38023			  0.41775			 -0.26678
	32.00			  10.26926			  0.28182			 -0.21161
	32.25			  10.30487			  0.35196			 -0.24345
	32.50			  10.34493			  0.38521			 -0.13976
	32.75			  10.33775			  0.27834			 -0.17035
	33.00			  10.23034			  0.26146			 -0.28669
	33.25			  10.21015			  0.21099			 -0.31028
	33.50			  10.20063			  0.02616			 -0.24384
	33.75			  10.36451			  -0.14580			 -0.21657
	34.00			  10.34690			  -0.28851			 -0.29200
	34.25			  10.31946			  -0.20967			 -0.25011
	34.50			  10.44811			  -0.15833			 -0.26869
	34.75			  10.45514			  -0.17695			 -0.29739
	35.00			  10.44418			  -0.20010			 -0.30205
	35.25			  10.42536			  -0.16790			 -0.16977
	35.50			  10.56543			  -0.18913			 -0.13367
	35.75			  10.61381			  -0.21263			 -0.28243
	36.00			  10.69182			  -0.41121			 -0.25576
	36.25			  10.55069			  -0.42670			 -0.14147
	36.50			  10.48046			  -0.34177			 -0.05278
	36.75			  10.59703			  -0.23821			 -0.08275
	37.00			  10.51947			  -0.14267			 -0.15357
	37.25			  10.34395			  -0.06783			 -0.14804
	37.50			  10.31968			  -0.01596			 -0.01800
	37.75			  10.30857			  -0.07427			 -0.07095
	38.00			  10.23472			  -0.04938			 -0.07998
	38.25			  10.37041			  -0.05825			 0.03235
	38.50			  10.49702			  -0.20706			 0.02845
	38.75			  10.54351			  -0.18861			 -0.07325
	39.00			  10.55454			  -0.27946			 -0.18718
	39.25			  10.50488			  -0.28277			 -0.13796
	39.50			  10.50609			  -0.30348			 -0.25776
	39.75			  10.58417			  -0.33115			 -0.21708
	40.00			  10.60950			  -0.34334			 -0.20327
	40.25			  10.57110			  -0.27772			 -0.18690
	40.50			  10.55666			  -0.21019			 -0.26673
	40.75			  10.53655			  -0.17347			 -0.19257
	41.00			  10.37728			  -0.21542			 -0.07842
	41.25			  10.47253			  -0.32645			 0.02562
	41.50			  10.39444			  -0.32019			 -0.14001
	41.75			  10.48991			  -0.33672			 -0.12263
	42.00			  10.50254			  -0.43018			 -0.18307
	42.25			  10.49891			  -0.37118			 -0.26864
	42.50			  10.52106			  -0.34978			 -0.30578
	42.75			  10.57004			  -0.35604			 -0.09799
	43.00			  10.52710			  -0.24344			 -0.04873
	43.25			  10.49838			  -0.19070			 -0.03752
	43.50			  10.53527			  -0.28260			 -0.15917
	43.75			  10.45151			  -0.25893			 -0.06910
	44.00			  10.41818			  -0.27285			 -0.17893
	44.25			  10.51592			  -0.14145			 -0.22275
	44.50			  10.50208			  -0.21420			 -0.16742
	44.75			  10.40760			  -0.31375			 -0.24442
	45.00			  10.24802			  -0.29339			 -0.17249
	45.25			  10.22837			  -0.24326			 -0.24167
	45.50			  10.17531			  -0.24239			 -0.42245
	45.75			  10.10833			  -0.06452			 -0.34209
	46.00			  10.07522			  -0.08018			 -0.33245
	46.25			  10.03592			  -0.19940			 -0.30168
	46.50			  9.95247			  -0.20375			 -0.26482
	46.75			  9.96403			  -0.18670			 -0.16851
	47.00			  9.91815			  -0.26658			 -0.12671
	47.25			  9.94234			  -0.07009			 -0.13642
	47.50			  9.94135			  -0.10803			 -0.09674
	47.75			  9.98580			  -0.22046			 0.03980
	48.00			  9.99449			  -0.18374			 0.13191
	48.25			  10.02035			  -0.33655			 0.14936
	48.50			  10.04907			  -0.35117			 -0.05292
	48.75			  9.95564			  -0.36927			 0.09846
	49.00			  9.92034			  -0.39346			 0.06824
	49.25			  9.84445			  -0.40756			 -0.01034
	49.50			  9.88413			  -0.44915			 0.03021
	49.75			  9.94090			  -0.42757			 0.09240
	50.00			  9.87635			  -0.48849			 -0.04031
	50.25			  9.93470			  -0.42723			 -0.04552
	50.50			  10.03320			  -0.44985			 -0.09140
	50.75			  9.94627			  -0.33864			 -0.11673
	51.00			  9.93160			  -0.29809			 -0.17846
	51.25			  9.83008			  -0.13205			 -0.15138
	51.50			  9.84377			  -0.30853			 -0.18165
	51.75			  9.81149			  -0.51982			 -0.03847
	52.00			  9.84921			  -0.46099			 -0.15152
	52.25			  9.91943			  -0.43662			 -0.00606
	52.50			  9.91807			  -0.41278			 -0.09100
	52.75			  9.98263			  -0.33446			 -0.10018
	53.00			  10.05043			  -0.32297			 -0.26468
	53.25			  10.08150			  -0.30574			 -0.23441
	53.50			  9.99510			  -0.33968			 -0.17411
	53.75			  9.96925			  -0.51338			 -0.29179
	54.00			  9.92049			  -0.44411			 -0.14243
	54.25			  9.92125			  -0.36161			 -0.00739
	54.50			  9.93145			  -0.45438			 0.00826
	54.75			  10.09609			  -0.51268			 -0.09430
	55.00			  10.04710			  -0.53774			 0.03406
	55.25			  9.93984			  -0.49945			 -0.01502
	55.50			  9.89925			  -0.44968			 0.03728
	55.75			  9.86795			  -0.60109			 0.20856
	56.00			  10.02125			  -0.56924			 0.15411
	56.25			  9.99442			  -0.62946			 -0.02062
	56.50			  9.93100			  -0.55393			 0.06949
	56.75			  9.96584			  -0.47578			 -0.06429
	57.00			  10.08566			  -0.33968			 -0.10647
	57.25			  10.11566			  -0.41330			 -0.07146
	57.50			  10.07696			  -0.39068			 -0.09534
	57.75			  10.11128			  -0.34334			 -0.16417
	58.00			  10.03085			  -0.58352			 -0.14347
	58.25			  10.09669			  -0.38093			 -0.19112
	58.50			  10.05255			  -0.43575			 -0.15214
	58.75			  9.98346			  -0.42949			 -0.08409
	59.00			  10.00591			  -0.52608			 -0.16516
	59.25			  10.07825			  -0.51842			 -0.08810
	59.50			  10.10984			  -0.45977			 -0.25876
	59.75			  10.07175			  -0.45490			 -0.29165
	60.00			  10.00024			  -0.44063			 -0.21000
	60.25			  9.94793			  -0.62650			 -0.20873
	60.50			  10.01914			  -0.49510			 -0.20136
	60.75			  10.10954			  -0.45646			 -0.18849
	61.00			  10.16200			  -0.44602			 -0.20391
	61.25			  9.95692			  -0.43297			 -0.26456
	61.50			  9.98837			  -0.45542			 -0.14395
	61.75			  9.96940			  -0.41539			 -0.11860
	62.00			  9.97885			  -0.36144			 -0.08245
	62.25			  9.80196			  -0.29687			 -0.07030
	62.50			  9.80030			  -0.37153			 -0.13630
	62.75			  9.77400			  -0.37501			 0.03521
	63.00			  9.79546			  -0.40199			 -0.11212
	63.25			  9.64821			  -0.40547			 -0.12978
	63.50			  9.48229			  -0.24901			 -0.00723
	63.75			  9.56937			  -0.44672			 -0.15719
	64.00			  9.60543			  -0.30017			 -0.03201
	64.25			  9.84225			  -0.02432			 -0.02445
	64.50			  9.91195			  0.13650			 -0.08462
	64.75			  9.72229			  0.04182			 -0.07514
	65.00			  9.71866			  -0.01579			 -0.16597
	65.25			  9.73008			  0.01293			 -0.08752
	65.50			  9.89237			  -0.05530			 0.02389
	65.75			  9.87567			  -0.09515			 -0.04909
	66.00			  9.97681			  -0.15990			 -0.10652
	66.25			  10.03229			  -0.18200			 -0.04008
	66.50			  10.05247			  -0.17800			 -0.14084
	66.75			  10.11521			  -0.20393			 -0.14455
	67.00			  10.08898			  -0.22499			 -0.09001
	67.25			  10.09896			  -0.15050			 -0.15726
	67.50			  10.12836			  -0.08227			 -0.11111
	67.75			  10.17107			  0.01171			 -0.16726
	68.00			  10.21718			  -0.05564			 -0.06758
	68.25			  10.18816			  -0.02136			 -0.08326
	68.50			  10.31855			  -0.03998			 -0.06288
	68.75			  10.36277			  0.10291			 -0.13676
	69.00			  10.37229			  0.15129			 -0.09269
	69.25			  10.28506			  -0.02710			 -0.13718
	69.50			  10.21303			  -0.01840			 -0.05864
	69.75			  10.19345			  -0.12787			 -0.06412
	70.00			  10.20758			  -0.17539			 0.06748
	70.25			  10.12436			  -0.17730			 -0.03416
	70.50			  10.08407			  -0.24291			 -0.08003
	70.75			  10.09132			  -0.19818			 0.01554
	71.00			  9.97749			  -0.16024			 0.03210
	71.25			  10.02155			  -0.13013			 -0.02784
	71.50			  9.90099			  -0.07688			 -0.13780
	71.75			  9.85201			  -0.07340			 -0.13515
	72.00			  9.78216			  -0.12631			 -0.18393
	72.25			  9.87143			  -0.24935			 -0.24368
	72.50			  9.98928			  -0.21942			 -0.20267
	72.75			  9.85488			  -0.21350			 -0.11302
	73.00			  9.92064			  -0.04868			 -0.06336
	73.25			  10.05640			  -0.05234			 -0.11034
	73.50			  10.03085			  -0.12631			 -0.17466
	73.75			  10.01037			  -0.27250			 -0.15792
	74.00			  9.92382			  -0.20219			 -0.27199
	74.25			  9.93848			  -0.31566			 -0.26523
	74.50			  9.89267			  -0.42792			 -0.04183
	74.75			  9.87015			  -0.45037			 -0.11191
	75.00			  9.71367			  -0.36039			 -0.13483
	75.25			  9.65169			  -0.39485			 -0.02708
	75.50			  9.63793			  -0.47700			 0.08011
	75.75			  9.68555			  -0.42740			 -0.01664
	76.00			  9.64164			  -0.36370			 0.05672
	76.25			  9.58041			  -0.32732			 -0.07351
	76.50			  9.59333			  -0.33446			 0.04226
	76.75			  9.58676			  -0.30783			 0.09312
	77.00			  9.57202			  -0.38371			 0.11345
	77.25			  9.63204			  -0.50763			 0.10035
	77.50			  9.64534			  -0.47805			 0.13608
	77.75			  9.53059			  -0.40164			 0.16329
	78.00			  9.60384			  -0.37484			 0.04537
	78.25			  9.58767			  -0.47352			 0.05884
	78.50			  9.66174			  -0.59291			 0.04353
	78.75			  9.69379			  -0.66079			 0.04238
	79.00			  9.89479			  -0.52921			 0.00517
	79.25			  9.88829			  -0.49684			 0.03350
	79.50			  9.83356			  -0.40669			 0.13885
	79.75			  9.95247			  -0.40721			 0.06930
	80.00			  9.95708			  -0.30070			 0.09549
	80.25			  9.87143			  -0.26589			 0.06647
	80.50			  9.79841			  -0.29530			 -0.02291
	80.75			  9.80559			  -0.41887			 -0.09949
	81.00			  9.82366			  -0.44985			 -0.21226
	81.25			  9.89872			  -0.58769			 -0.17496
	81.50			  9.93017			  -0.60423			 -0.05080
	81.75			  9.97295			  -0.61537			 0.01354
	82.00			  9.96615			  -0.76156			 0.19185
	82.25			  9.97590			  -0.62494			 0.09745
	82.50			  9.89343			  -0.52504			 -0.06601
	82.75			  9.82850			  -0.68655			 -0.04453
	83.00			  9.78647			  -0.81900			 -0.16897
	83.25			  9.87060			  -0.90741			 -0.14638
	83.50			  9.85767			  -1.10547			 -0.17268
	83.75			  9.83764			  -0.87887			 -0.17438
	84.00			  9.79463			  -0.85554			 -0.08538
	84.25			  9.85185			  -0.71457			 -0.02846
	84.50			  9.88889			  -0.77792			 -0.03201
	84.75			  9.95564			  -0.81569			 -0.05255
	85.00			  9.90915			  -0.80995			 0.04676
	85.25			  9.87559			  -0.76783			 0.10282
	85.50			  9.76152			  -0.94117			 0.19109
	85.75			  9.68646			  -0.91089			 0.19743
	86.00			  9.68268			  -0.84806			 0.21384
	86.25			  9.68775			  -0.68115			 0.21589
	86.50			  9.69909			  -0.61850			 0.11465
	86.75			  9.65645			  -0.69717			 0.09998
	87.00			  9.70528			  -0.73963			 0.07419
	87.25			  9.69584			  -0.50154			 0.14572
	87.50			  9.65403			  -0.47474			 0.22078
	87.75			  9.54722			  -0.44950			 0.22940
	88.00			  9.57580			  -0.46778			 0.29381
	88.25			  9.48464			  -0.40460			 0.22237
	88.50			  9.50323			  -0.47648			 0.21368
	88.75			  9.54858			  -0.38737			 0.33519
	89.00			  9.50300			  -0.40025			 0.18611
	89.25			  9.53158			  -0.38807			 0.08486
	89.50			  9.59931			  -0.50955			 -0.00052
	89.75			  9.69916			  -0.51581			 -0.16071
	90.00			  9.75192			  -0.46517			 -0.10956
	90.25			  9.65502			  -0.55549			 -0.07865
	90.50			  9.64995			  -0.46621			 -0.02305
	90.75			  9.62886			  -0.37049			 0.08230
	91.00			  9.50950			  -0.39659			 0.03636
	91.25			  9.48690			  -0.40495			 0.17792
	91.50			  9.56710			  -0.23821			 0.12200
	91.75			  9.59674			  -0.26624			 -0.02171
	92.00			  9.67044			  -0.15728			 0.01785
	92.25			  9.71950			  -0.11708			 0.01983
	92.50			  9.78911			  -0.17939			 0.02234
	92.75			  9.94763			  -0.19662			 0.09120
	93.00			  9.98149			  -0.13536			 0.03871
	93.25			  10.02004			  -0.21350			 0.03244
	93.50			  9.96040			  -0.34368			 -0.07247
	93.75			  9.86312			  -0.32054			 -0.13379
	94.00			  9.80287			  -0.28817			 -0.00827
	94.25			  9.78843			  -0.34682			 -0.04460
	94.50			  9.78292			  -0.32889			 -0.06479
	94.75			  9.79403			  -0.30870			 -0.14594
	95.00			  9.81421			  -0.35587			 -0.05045
	95.25			  9.77052			  -0.40460			 0.04461
	95.50			  9.98353			  -0.38284			 0.04102
	95.75			  10.03713			  -0.41365			 -0.00661
	96.00			  10.02352			  -0.18896			 -0.09059
	96.25			  10.08104			  -0.17173			 -0.08911
	96.50			  9.89018			  -0.06034			 -0.11440
	96.75			  9.76863			  0.03625			 -0.21433
	97.00			  9.79047			  0.13476			 -0.29974
	97.25			  9.76031			  0.24615			 -0.21666
	97.50			  9.68646			  0.37093			 -0.20142
	97.75			  9.44533			  0.15112			 -0.19942
	98.00			  9.52175			  0.13946			 -0.17597
	98.25			  9.49265			  0.21360			 -0.39421
	98.50			  9.50293			  0.13093			 -0.31235
	98.75			  9.40345			  0.00945			 -0.18545
	99.00			  9.58018			  -0.02867			 -0.08692
	99.25			  9.64050			  0.02320			 -0.15811
	99.50			  9.63347			  0.09334			 -0.10603
	99.75			  9.59462			  -0.00361			 -0.03789
	100.00			  9.56665			  -0.00848			 0.02654
	100.25			  9.67800			  -0.08332			 0.02995
	100.50			  9.76553			  -0.09097			 -0.02768
	100.75			  9.65003			  0.03486			 -0.02005
	101.00			  9.66371			  -0.12561			 0.09690
	101.25			  9.68986			  -0.07061			 -0.01424
	101.50			  9.67497			  0.09073			 0.01730
	101.75			  9.70128			  0.05853			 0.01711
	102.00			  9.79320			  0.05104			 0.01554
	102.25			  9.84361			  -0.13240			 -0.10377
	102.50			  9.93213			  -0.05564			 -0.13653
	102.75			  10.01876			  -0.12404			 -0.12595
	103.00			  9.89880			  -0.21298			 -0.29313
	103.25			  9.92744			  -0.37014			 -0.25435
	103.50			  10.05693			  -0.44602			 -0.32736
	103.75			  9.94717			  -0.37623			 -0.38271
	104.00			  9.91459			  -0.26101			 -0.42545
	104.25			  10.00281			  -0.25301			 -0.25186
	104.50			  9.97378			  -0.11760			 -0.25232
	104.75			  10.02866			  -0.17904			 -0.20438
	105.00			  10.00288			  -0.24396			 -0.03598
	105.25			  9.85344			  -0.30191			 -0.07099
	105.50			  9.89139			  -0.42688			 -0.16555
	105.75			  9.96902			  -0.32576			 -0.16014
	106.00			  10.02927			  -0.43036			 -0.12729
	106.25			  10.03463			  -0.32036			 -0.10728
	106.50			  9.97008			  -0.21176			 -0.15905
	106.75			  9.96547			  -0.31218			 -0.13787
	107.00			  9.90016			  -0.36805			 -0.07664
	107.25			  9.84482			  -0.32297			 -0.14631
	107.50			  9.77415			  -0.20271			 -0.14806
	107.75			  9.88171			  -0.18113			 -0.12551
	108.00			  10.00122			  -0.27372			 -0.09202
	108.25			  9.93939			  -0.26380			 -0.10032
	108.50			  9.91626			  -0.33951			 -0.18978
	108.75			  9.95874			  -0.18652			 -0.08137
	109.00			  9.93024			  -0.10455			 -0.06401
	109.25			  9.87907			  -0.17834			 -0.02281
	109.50			  9.85072			  -0.23630			 -0.12676
	109.75			  9.80567			  -0.34664			 -0.10327
	110.00			  9.85367			  -0.55097			 -0.22540
	110.25			  10.06887			  -0.63381			 -0.26671
	110.50			  10.01868			  -0.50624			 -0.13238
	110.75			  9.94990			  -0.34856			 -0.10322
	111.00			  9.99926			  -0.26606			 -0.06198
	111.25			  10.02299			  -0.11604			 -0.14571
	111.50			  9.95934			  -0.10699			 -0.15117
	111.75			  9.91701			  -0.15502			 -0.03439
	112.00			  9.86622			  -0.21594			 -0.05963
	112.25			  9.80824			  -0.20288			 -0.15827
	112.50			  9.81640			  -0.30731			 -0.22494
	112.75			  9.89887			  -0.41330			 -0.17512
	113.00			  9.88920			  -0.53322			 -0.15419
	113.25			  9.93772			  -0.51181			 -0.22319
	113.50			  9.80748			  -0.49162			 -0.27040
	113.75			  9.68624			  -0.44498			 -0.30645
	114.00			  9.62856			  -0.37379			 -0.26756
	114.25			  9.62040			  -0.39189			 -0.22664
	114.50			  9.63982			  -0.49249			 0.01455
	114.75			  9.70302			  -0.51198			 -0.04100
	115.00			  9.75661			  -0.48971			 -0.06832
	115.25			  9.72917			  -0.51303			 -0.08536
	115.50			  9.74913			  -0.48971			 -0.04778
	115.75			  9.81028			  -0.44498			 0.02188
	116.00			  9.90469			  -0.59361			 -0.12295
	116.25			  9.84649			  -0.62755			 -0.15467
	116.50			  9.89827			  -0.37449			 -0.23854
	116.75			  9.62009			  -0.43610			 -0.15804
	117.00			  9.64390			  -0.46343			 -0.11433
	117.25			  9.61185			  -0.43871			 -0.04232
	117.50			  9.65199			  -0.46343			 -0.05336
	117.75			  9.70869			  -0.25283			 -0.05177
	118.00			  9.79478			  -0.34264			 -0.06048
	118.25			  9.79146			  -0.49580			 -0.03038
	118.50			  9.90704			  -0.32889			 0.16718
	118.75			  9.96297			  -0.22325			 0.18911
	119.00			  9.98709			  -0.32036			 0.16831
	119.25			  9.83205			  -0.25457			 0.09166
	119.50			  9.87725			  -0.24883			 0.04072
	119.75			  9.89328			  -0.25823			 0.04572
	120.00			  9.90560			  -0.35552			 -0.01133
	120.25			  10.04355			  -0.40077			 0.11672
	120.50			  10.05995			  -0.40181			 0.11409
	120.75			  10.04453			  -0.49110			 0.07878
	121.00			  10.02352			  -0.45890			 -0.00672
	121.25			  10.11446			  -0.62894			 -0.16611
	121.50			  10.07764			  -0.58856			 0.01388
	121.75			  9.98512			  -0.43802			 -0.08911
	122.00			  10.03539			  -0.42514			 -0.20262
	122.25			  10.14477			  -0.45002			 -0.18275
	122.50			  10.27085			  -0.64809			 -0.16069
	122.75			  10.28506			  -0.55358			 -0.13423
	123.00			  10.37691			  -0.36144			 -0.06874
	123.25			  10.46104			  -0.28399			 0.00655
	123.50			  10.26496			  -0.10612			 0.01633
	123.75			  10.20373			  -0.14232			 0.11259
	124.00			  10.22656			  -0.10316			 0.08915
	124.25			  10.02813			  -0.10925			 0.00930
	124.50			  10.07757			  0.01154			 0.07175
	124.75			  10.06827			  -0.07966			 0.03242
	125.00			  10.11854			  -0.09463			 0.06850
	125.25			  10.14840			  0.02755			 0.07398
	125.50			  10.07984			  -0.04451			 0.11831
	125.75			  10.05776			  -0.19958			 0.19918
	126.00			  9.97454			  -0.23734			 0.23397
	126.25			  9.94921			  -0.24378			 0.09994
	126.50			  9.98452			  -0.22603			 0.10674
	126.75			  10.01951			  -0.38284			 0.06792
	127.00			  10.06305			  -0.32471			 -0.04435
	127.25			  10.14809			  -0.23334			 0.08758
	127.50			  10.10561			  -0.21002			 0.09390
	127.75			  10.11635			  -0.24483			 0.14701
	128.00			  10.11665			  -0.32454			 0.17825
	128.25			  10.08550			  -0.18287			 0.01340
	128.50			  10.17561			  -0.24831			 -0.13430
	128.75			  10.20887			  -0.27790			 -0.07381
	129.00			  10.16805			  -0.05477			 -0.05555
	129.25			  10.16843			  0.05000			 -0.11876
	129.50			  10.19504			  -0.02675			 -0.12254
	129.75			  10.14560			  -0.09080			 -0.22763
	130.00			  10.14696			  -0.19436			 -0.19336
	130.25			  10.12897			  -0.13031			 -0.20760
	130.50			  10.00039			  -0.12752			 0.00734
	130.75			  9.94249			  -0.26902			 0.11460
	131.00			  9.87257			  -0.29339			 0.09369
	131.25			  9.94944			  -0.16825			 0.12066
	131.50			  10.02942			  -0.09115			 0.06776
	131.75			  10.10206			  -0.03876			 0.05284
	132.00			  9.93924			  0.12327			 -0.00481
	132.25			  9.84951			  0.04704			 0.09849
	132.50			  9.98950			  0.09630			 0.00711
	132.75			  10.08150			  0.14433			 0.04102
	133.00			  10.10712			  0.12519			 0.09540
	133.25			  10.11854			  0.04478			 0.13980
	133.50			  10.13812			  0.06584			 0.12140
	133.75			  10.06056			  0.18192			 0.03509
	134.00			  10.13093			  0.17044			 0.05722
	134.25			  10.20252			  0.17218			 -0.07565
	134.50			  10.04181			  0.17374			 -0.01475
	134.75			  9.94740			  0.19202			 0.01914
	135.00			  10.04348			  0.19828			 0.11087
	135.25			  10.12421			  0.17966			 -0.00979
	135.50			  10.21733			  0.22961			 -0.04391
	135.75			  10.18551			  0.37198			 0.05833
	136.00			  10.19617			  0.30880			 -0.06832
	136.25			  10.07832			  0.31072			 -0.21447
	136.50			  10.09896			  0.24354			 -0.21756
	136.75			  10.15021			  0.21830			 -0.03697
	137.00			  10.15588			  0.12919			 0.05838
	137.25			  10.11007			  0.01432			 0.08913
	137.50			  10.16450			  -0.04816			 0.13394
	137.75			  10.13275			  0.06392			 -0.08489
	138.00			  10.10531			  -0.00221			 -0.00094
	138.25			  10.08150			  -0.13327			 0.20928
	138.50			  10.05292			  -0.00012			 0.14415
	138.75			  10.00530			  0.13441			 -0.05585
	139.00			  10.02465			  0.16765			 -0.16417
	139.25			  9.95549			  0.15965			 -0.21862
	139.50			  9.98452			  0.09073			 -0.12332
	139.75			  9.99858			  0.10326			 0.05234
	140.00			  9.95987			  0.07558			 0.02126
	140.25			  10.04136			  0.17810			 0.02304
	140.50			  10.12103			  0.22648			 0.15284
	140.75			  10.18634			  0.06323			 -0.01376
	141.00			  10.19035			  -0.07949			 0.08449
	141.25			  10.15497			  -0.17504			 0.11693
	141.50			  10.04280			  -0.15676			 0.25012
	141.75			  10.04038			  -0.16546			 0.37786
	142.00			  10.02957			  -0.06052			 0.29950
	142.25			  10.02692			  -0.11726			 0.42551
	142.50			  9.98127			  -0.13170			 0.38298
	142.75			  9.96622			  -0.04329			 0.19123
	143.00			  9.96532			  -0.00656			 0.17338
	143.25			  9.95458			  0.01867			 0.12942
	143.50			  10.08959			  0.10430			 0.19521
	143.75			  10.10675			  0.09386			 0.05077
	144.00			  10.01475			  -0.00482			 0.02163
	144.25			  10.04469			  -0.04276			 0.08461
	144.50			  9.96577			  0.03294			 -0.00656
	144.75			  10.08036			  -0.07496			 -0.09488
	145.00			  10.04922			  -0.11673			 -0.11715
	145.25			  9.89668			  -0.19140			 0.01591
	145.50			  9.84445			  -0.19749			 -0.04905
	145.75			  9.79773			  -0.20236			 -0.07496
	146.00			  9.71496			  -0.18391			 -0.06138
	146.25			  9.75336			  -0.32767			 -0.04780
	146.50			  9.82721			  -0.22586			 -0.08766
	146.75			  9.70733			  -0.19418			 0.09883
	147.00			  9.71881			  -0.25092			 0.13551
	147.25			  9.72426			  -0.30505			 0.14323
	147.50			  9.81172			  -0.22568			 0.11700
	147.75			  9.87181			  -0.22586			 0.11794
	148.00			  9.85631			  -0.25075			 0.01153
	148.25			  9.90840			  -0.16755			 0.01133
	148.50			  9.95443			  -0.23421			 0.05554
	148.75			  9.78586			  -0.17243			 0.01317
	149.00			  9.74263			  -0.18548			 -0.05887
	149.25			  9.68487			  -0.16459			 -0.14508
	149.50			  9.85760			  -0.10333			 -0.06756
	149.75			  9.93765			  -0.11186			 -0.16689
	150.00			  9.89192			  -0.23508			 -0.21984
	150.25			  9.80733			  -0.09863			 -0.20530
	150.50			  9.73416			  -0.24639			 -0.21447
	150.75			  9.78730			  -0.16686			 -0.27256
	151.00			  9.81413			  -0.35691			 -0.23432
	151.25			  9.86213			  -0.26328			 -0.17307
	151.50			  9.87801			  -0.06661			 -0.22213
	151.75			  9.95700			  -0.19157			 -0.22316
	152.00			  9.92533			  -0.09672			 -0.12376
	152.25			  9.90091			  -0.05773			 -0.01002
	152.50			  10.03153			  -0.05617			 -0.06823
	152.75			  10.08157			  -0.12143			 0.08152
	153.00			  10.15580			  0.01258			 0.00577
	153.25			  10.15520			  -0.06295			 0.15091
	153.50			  10.05209			  0.06149			 0.24521
	153.75			  10.11907			  0.14033			 0.26585
	154.00			  10.04476			  0.13998			 0.13996
	154.25			  9.96070			  0.22874			 0.19501
	154.50			  10.06222			  0.10482			 0.28201
	154.75			  10.00183			  -0.02954			 0.28927
	155.00			  10.00062			  -0.13501			 0.38759
	155.25			  10.04317			  -0.18113			 0.33689
	155.50			  10.01808			  -0.18043			 0.26988
	155.75			  9.93833			  -0.16616			 0.20879
	156.00			  9.90061			  -0.15990			 0.15616
	156.25			  9.80491			  -0.17695			 0.12481
	156.50			  9.84256			  -0.23299			 0.08145
	156.75			  9.74202			  -0.31375			 0.06771
	157.00			  9.84671			  -0.36109			 0.05261
	157.25			  9.80990			  -0.38424			 -0.00361
	157.50			  9.69712			  -0.26275			 -0.09382
	157.75			  9.79040			  -0.18513			 -0.05714
	158.00			  9.71322			  -0.25075			 0.00432
	158.25			  9.89018			  -0.35030			 0.03521
	158.50			  9.94158			  -0.38615			 -0.02646
	158.75			  9.92586			  -0.31827			 0.11206
	159.00			  9.87173			  -0.26676			 0.12228
	159.25			  9.84505			  -0.35204			 0.12241
	159.50			  9.84762			  -0.26188			 0.17977
	159.75			  9.74905			  -0.23473			 0.05021
	160.00			  9.83802			  -0.34212			 0.05895
	160.25			  9.79252			  -0.43523			 0.11467
	160.50			  9.70680			  -0.41191			 0.27380
	160.75			  9.72804			  -0.29217			 0.22371
	161.00			  9.79395			  -0.42009			 0.07490
	161.25			  9.84687			  -0.29704			 0.15895
	161.50			  9.89154			  -0.29669			 0.06564
	161.75			  9.93054			  -0.33237			 0.03505
	162.00			  10.06872			  -0.41609			 0.13519
	162.25			  10.00530			  -0.37606			 -0.07586
	162.50			  10.05277			  -0.33742			 0.03777
	162.75			  10.16351			  -0.41017			 0.14856
	163.00			  10.04899			  -0.30000			 0.11061
	163.25			  10.18491			  -0.25997			 -0.02860
	163.50			  10.23139			  -0.26641			 -0.07353
	163.75			  10.07439			  -0.30766			 0.03894
	164.00			  9.95541			  -0.40912			 0.10967
	164.25			  10.02526			  -0.44045			 0.03555
	164.50			  9.96214			  -0.44968			 -0.01512
	164.75			  9.99124			  -0.40843			 0.01603