--------------TurbSim v2.00.* User Time Series Input File-----------------------
     Time series input from low-res turbsim run
--------------------------------------------------------------------------------
          3 nComp - Number of velocity components in the file
          1 nPoints - Number of time series points contained in this file (-)
          1 RefPtID - Index of the reference point (1-nPoints)
     Pointyi Pointzi ! nPoints listed in order of increasing height
       (m)     (m)
       -2.37044   94.00000
--------Time Series-------------------------------------------------------------
Elapsed Time         Point01u             Point01v           Point01w
         (s)            (m/s)                (m/s)              (m/s)
	0.00			  9.17617			  -0.85587			 -0.16717
	0.25			  9.34374			  -0.57005			 -0.13613
	0.50			  9.40440			  -0.57644			 -0.10662
	0.75			  9.43623			  -0.64322			 -0.28495
	1.00			  9.49131			  -0.89188			 -0.09616
	1.25			  8.76473			  -0.93632			 0.05657
	1.50			  8.95134			  -0.93382			 -0.03561
	1.75			  9.26077			  -0.68356			 0.02955
	2.00			  9.34700			  -0.61495			 0.03457
	2.25			  9.17168			  -0.40390			 -0.38754
	2.50			  9.17698			  -0.59558			 -0.20690
	2.75			  9.02383			  -0.76356			 -0.14777
	3.00			  9.16488			  -0.70612			 -0.13506
	3.25			  8.99922			  -0.48549			 -0.25420
	3.50			  9.26281			  -0.45997			 -0.37199
	3.75			  9.32728			  -0.45267			 -0.58307
	4.00			  9.37012			  -0.13518			 -0.57491
	4.25			  9.65480			  -0.36812			 -0.32315
	4.50			  9.52382			  -0.46544			 -0.25261
	4.75			  9.52191			  -0.69154			 -0.38783
	5.00			  9.81815			  -0.55182			 -0.60991
	5.25			  9.67384			  -0.23273			 -0.43768
	5.50			  9.39420			  0.23428			 -0.28879
	5.75			  9.33666			  0.41958			 -0.31422
	6.00			  9.24880			  0.27212			 -0.10562
	6.25			  9.35503			  0.19736			 0.09205
	6.50			  9.69411			  0.33252			 -0.06754
	6.75			  9.59604			  0.41069			 -0.16729
	7.00			  9.47744			  0.19439			 -0.38428
	7.25			  9.53851			  0.34163			 -0.25456
	7.50			  9.58189			  0.16864			 -0.25267
	7.75			  10.06936			  -0.02669			 -0.40167
	8.00			  9.98966			  0.07861			 -0.18089
	8.25			  9.83474			  0.22608			 -0.03910
	8.50			  9.97348			  0.17776			 0.12930
	8.75			  10.02489			  0.07884			 -0.14630
	9.00			  9.96219			  -0.35307			 -0.27466
	9.25			  10.00285			  -0.24800			 -0.30044
	9.50			  10.31052			  -0.06384			 -0.13766
	9.75			  10.08881			  0.26892			 -0.17941
	10.00			  9.76769			  0.20442			 -0.08208
	10.25			  10.04910			  0.16157			 0.00690
	10.50			  9.72049			  0.19189			 -0.16114
	10.75			  9.59114			  -0.02851			 -0.27756
	11.00			  9.75382			  -0.31934			 -0.35200
	11.25			  9.60679			  -0.55387			 -0.37341
	11.50			  9.59822			  -0.02897			 -0.06736
	11.75			  9.73164			  0.03964			 0.06573
	12.00			  9.70988			  -0.27763			 0.15921
	12.25			  9.31123			  -0.34874			 0.32513
	12.50			  9.28199			  -0.43011			 0.07638
	12.75			  9.13346			  -0.74487			 -0.06801
	13.00			  9.35026			  -1.21507			 0.16690
	13.25			  9.27111			  -1.26453			 0.40353
	13.50			  9.20487			  -0.96459			 0.36575
	13.75			  9.41650			  -0.68037			 -0.05033
	14.00			  9.49308			  -0.91923			 -0.31735
	14.25			  9.47390			  -0.59512			 0.04865
	14.50			  9.66513			  -0.42897			 0.19960
	14.75			  9.51294			  -0.34259			 0.37686
	15.00			  9.38087			  -0.33393			 0.03942
	15.25			  9.30280			  -0.15227			 0.08193
	15.50			  9.25329			  -0.25210			 0.03901
	15.75			  9.32320			  -0.36698			 -0.03673
	16.00			  9.10435			  -0.54453			 0.01057
	16.25			  9.24921			  -0.30156			 0.35167
	16.50			  9.25220			  -0.59877			 0.18854
	16.75			  9.20840			  -0.77290			 0.27570
	17.00			  9.06627			  -0.78726			 0.27741
	17.25			  9.29042			  -1.09860			 0.25488
	17.50			  9.36482			  -1.07490			 0.35605
	17.75			  9.26526			  -0.84903			 0.45497
	18.00			  9.31585			  -0.84766			 0.78661
	18.25			  9.26539			  -0.95706			 0.61532
	18.50			  9.27791			  -0.94430			 0.68651
	18.75			  9.12408			  -0.67649			 0.60036
	19.00			  9.26458			  -0.53792			 0.46591
	19.25			  9.22785			  -0.46772			 0.26813
	19.50			  9.56108			  -0.53518			 0.13054
	19.75			  9.28498			  -0.36447			 0.03930
	20.00			  9.41786			  -0.29495			 -0.07942
	20.25			  9.76062			  -0.35968			 -0.25704
	20.50			  9.98993			  -0.66760			 0.21479
	20.75			  9.72471			  -0.36561			 -0.20838
	21.00			  9.60026			  -0.60242			 -0.32776
	21.25			  9.75300			  -0.31341			 0.01825
	21.50			  9.69247			  -0.04811			 0.03026
	21.75			  9.69275			  0.09935			 0.12882
	22.00			  9.54599			  0.22152			 -0.05258
	22.25			  9.58516			  0.31816			 0.01613
	22.50			  9.77558			  0.42984			 0.07614
	22.75			  10.11969			  -0.06361			 -0.26839
	23.00			  9.96151			  -0.06111			 -0.21246
	23.25			  9.77272			  -0.30863			 -0.40131
	23.50			  9.58298			  -0.82213			 -0.28956
	23.75			  9.36971			  -0.96800			 -0.09007
	24.00			  9.33218			  -1.31490			 0.15673
	24.25			  9.41746			  -1.21462			 0.00330
	24.50			  9.33993			  -1.33974			 -0.18278
	24.75			  9.23302			  -1.05256			 0.08489
	25.00			  9.27587			  -1.18134			 0.20344
	25.25			  9.12775			  -1.33131			 0.61000
	25.50			  9.18950			  -1.53598			 0.43889
	25.75			  9.38250			  -1.46670			 0.71880
	26.00			  9.54640			  -1.60778			 0.65452
	26.25			  9.62719			  -1.32425			 0.33394
	26.50			  9.90506			  -1.12162			 0.08093
	26.75			  9.74620			  -1.05484			 0.04332
	27.00			  9.82767			  -1.30396			 0.28468
	27.25			  9.95593			  -1.01131			 0.26452
	27.50			  9.88248			  -0.72732			 0.10718
	27.75			  9.57006			  -0.59900			 -0.01592
	28.00			  9.81869			  -0.20150			 0.08802
	28.25			  9.91757			  -0.41552			 -0.45459
	28.50			  9.95688			  -0.18282			 -0.27307
	28.75			  10.18375			  -0.18760			 -0.37518
	29.00			  10.25312			  -0.49324			 -0.57592
	29.25			  9.88248			  -0.67991			 -0.78688
	29.50			  9.55129			  -0.46681			 -0.77825
	29.75			  9.23275			  -0.26692			 -0.68436
	30.00			  8.97433			  -0.56116			 -0.41840
	30.25			  9.20364			  -0.44698			 -0.12749
	30.50			  9.28892			  -0.31068			 -0.30955
	30.75			  9.41582			  -0.10190			 -0.31960
	31.00			  9.40657			  0.02687			 -0.42236
	31.25			  9.47254			  -0.55205			 0.04350
	31.50			  9.33666			  -0.58122			 0.12510
	31.75			  9.29124			  -0.22521			 -0.09001
	32.00			  9.54803			  -0.33529			 -0.01657
	32.25			  9.49104			  -0.11945			 -0.15144
	32.50			  9.61631			  -0.29062			 -0.01628
	32.75			  9.41392			  -0.39911			 0.07590
	33.00			  9.34387			  -0.73097			 0.15910
	33.25			  9.26172			  -0.45792			 0.01441
	33.50			  9.22119			  -0.00344			 -0.05731
	33.75			  9.36319			  -0.09780			 0.10789
	34.00			  9.52967			  -0.23068			 0.00773
	34.25			  9.71995			  -0.22498			 -0.05199
	34.50			  9.60053			  -0.25803			 -0.00327
	34.75			  9.44235			  -0.59695			 0.01483
	35.00			  8.88320			  -0.30225			 0.11865
	35.25			  8.92509			  -0.26168			 -0.31717
	35.50			  8.76663			  -0.43535			 -0.18012
	35.75			  8.74283			  -0.48322			 -0.39901
	36.00			  9.01853			  -0.21860			 -0.51821
	36.25			  8.94032			  -0.59353			 -0.57828
	36.50			  8.95447			  -0.40960			 -0.70322
	36.75			  8.83886			  -0.48139			 -0.42845
	37.00			  9.11455			  -0.46794			 -0.28590
	37.25			  9.20160			  -0.46863			 -0.36040
	37.50			  9.09714			  -0.52151			 -0.01923
	37.75			  8.99432			  -0.43558			 -0.17917
	38.00			  8.93529			  -0.37518			 -0.24049
	38.25			  9.06355			  -0.51216			 -0.08126
	38.50			  9.05117			  -0.47319			 0.13273
	38.75			  9.19630			  -0.71410			 0.19428
	39.00			  8.80322			  -0.73393			 0.00838
	39.25			  8.33302			  -0.43262			 0.04149
	39.50			  8.17593			  -0.72481			 0.09494
	39.75			  8.23510			  -1.15467			 -0.02006
	40.00			  8.02713			  -1.02088			 -0.09462
	40.25			  8.15906			  -0.65165			 0.25754
	40.50			  8.22231			  -0.65416			 -0.23830
	40.75			  8.35710			  -0.53906			 -0.17013
	41.00			  8.92359			  0.07770			 -0.37216
	41.25			  9.03784			  -0.21655			 -0.03715
	41.50			  8.98752			  -0.24321			 0.00921
	41.75			  8.73725			  -0.21837			 0.32063
	42.00			  8.88959			  -0.09279			 0.15366
	42.25			  9.12244			  0.30699			 0.27682
	42.50			  8.94495			  0.28853			 0.28947
	42.75			  8.97405			  0.36534			 -0.22612
	43.00			  8.79384			  0.25092			 0.33027
	43.25			  8.58846			  0.45126			 0.44545
	43.50			  8.57975			  0.51759			 0.16300
	43.75			  8.79819			  0.28670			 -0.18337
	44.00			  8.61525			  -0.02054			 -0.31327
	44.25			  8.47013			  0.16180			 -0.00469
	44.50			  8.29345			  0.32796			 0.31708
	44.75			  8.29821			  0.26118			 -0.08386
	45.00			  8.67360			  0.11599			 -0.11295
	45.25			  8.72760			  0.29582			 0.25973
	45.50			  8.87259			  0.50482			 -0.08061
	45.75			  8.81437			  0.36488			 -0.09704
	46.00			  9.09279			  0.27120			 -0.12755
	46.25			  8.66163			  0.72226			 -0.02284
	46.50			  8.19266			  0.60876			 0.03587
	46.75			  8.48563			  0.70767			 0.09163
	47.00			  8.56071			  0.66596			 -0.02373
	47.25			  8.55690			  0.47086			 0.24418
	47.50			  8.70760			  0.55725			 0.34316
	47.75			  9.07375			  -0.10601			 0.30443
	48.00			  8.97052			  -0.04857			 0.32844
	48.25			  9.12571			  0.16796			 0.07951
	48.50			  9.24703			  -0.27330			 -0.05175
	48.75			  9.07810			  -0.46202			 -0.17604
	49.00			  8.81369			  -0.27649			 -0.04182
	49.25			  8.86375			  -0.15888			 0.30041
	49.50			  8.97541			  -0.27353			 0.16383
	49.75			  9.04736			  0.18915			 0.16477
	50.00			  8.92672			  0.11713			 0.11168
	50.25			  8.97841			  0.08089			 0.01494
	50.50			  9.29382			  -0.02031			 0.10198
	50.75			  9.11279			  0.18915			 0.27700
	51.00			  9.49281			  0.14767			 0.12693
	51.25			  9.66255			  0.14699			 0.03995
	51.50			  9.62719			  0.01890			 -0.07594
	51.75			  9.57809			  0.18596			 -0.10875
	52.00			  9.75586			  0.33069			 -0.20927
	52.25			  9.93471			  0.39975			 -0.02467
	52.50			  9.94859			  0.47018			 -0.08197
	52.75			  10.24768			  0.18254			 -0.03106
	53.00			  10.43320			  0.12032			 -0.24433
	53.25			  10.12391			  -0.43239			 0.09358
	53.50			  10.35649			  -0.39114			 0.39496
	53.75			  10.35118			  -0.83421			 0.27315
	54.00			  10.35268			  -0.60515			 0.04693
	54.25			  10.07753			  -0.40481			 0.04072
	54.50			  10.16036			  -0.44265			 0.25565
	54.75			  10.28835			  -0.26578			 0.29568
	55.00			  10.67285			  0.41388			 -0.22032
	55.25			  10.99357			  0.35554			 0.05763
	55.50			  10.68169			  0.45149			 0.00134
	55.75			  10.90625			  0.53696			 0.58972
	56.00			  10.67612			  0.46061			 0.46638
	56.25			  10.96991			  0.18323			 0.37769
	56.50			  10.84695			  0.44009			 0.27640
	56.75			  10.67190			  0.54243			 -0.00475
	57.00			  10.95930			  0.00568			 0.29828
	57.25			  11.15856			  -0.08048			 0.20456
	57.50			  11.10129			  -0.40595			 -0.00900
	57.75			  11.26560			  -0.31045			 -0.00522
	58.00			  11.33496			  -0.06544			 -0.03313
	58.25			  11.45710			  -0.05997			 0.20155
	58.50			  11.22452			  0.23770			 0.52190
	58.75			  11.42909			  0.28853			 0.60486
	59.00			  11.44037			  -0.03649			 0.55099
	59.25			  11.24125			  -0.31524			 0.35451
	59.50			  11.21731			  -0.39000			 0.14100
	59.75			  11.28097			  -0.20834			 0.08341
	60.00			  11.43072			  0.12351			 -0.08463
	60.25			  11.22411			  -0.30954			 0.02896
	60.50			  11.18576			  -0.10578			 0.16199
	60.75			  11.19514			  -0.34510			 -0.38878
	61.00			  11.43221			  -0.76629			 -0.58833
	61.25			  11.44513			  -0.78635			 -0.63292
	61.50			  11.19732			  -0.73233			 -0.59017
	61.75			  11.51641			  -0.95752			 -0.28584
	62.00			  11.36842			  -0.93290			 -0.15854
	62.25			  11.33306			  -0.85427			 -0.13666
	62.50			  11.29334			  -0.73165			 -0.45435
	62.75			  11.25662			  -0.55638			 -0.29494
	63.00			  11.50362			  -0.63729			 -0.18201
	63.25			  11.74436			  -1.04664			 -0.32451
	63.50			  11.46146			  -0.75718			 -0.47102
	63.75			  11.79700			  -0.46908			 -0.30458
	64.00			  11.86881			  -0.35148			 -0.05258
	64.25			  11.62222			  -0.24230			 0.01287
	64.50			  11.82039			  -0.28811			 -0.07162
	64.75			  11.82094			  -0.32185			 -0.01734
	65.00			  11.60658			  -0.01780			 0.09630
	65.25			  11.76340			  -0.14156			 -0.09947
	65.50			  11.36706			  -0.40755			 -0.21157
	65.75			  11.20956			  -0.24321			 -0.21335
	66.00			  11.43874			  -0.61108			 -0.39605
	66.25			  11.35564			  -0.83376			 -0.24267
	66.50			  11.15720			  -0.87114			 -0.23794
	66.75			  11.15992			  -0.81370			 -0.23174
	67.00			  10.67993			  -0.56550			 -0.27851
	67.25			  10.56214			  -0.64413			 -0.29281
	67.50			  10.46475			  -0.43376			 -0.03041
	67.75			  10.46353			  -0.52948			 -0.12336
	68.00			  10.63749			  -0.51877			 -0.19431
	68.25			  10.67789			  -0.29039			 -0.14145
	68.50			  10.40396			  -0.27831			 0.00040
	68.75			  10.50773			  -0.41735			 -0.66366
	69.00			  10.49291			  -0.31934			 -0.66526
	69.25			  10.55235			  -0.26578			 -0.25793
	69.50			  10.80179			  -0.18555			 -0.53878
	69.75			  10.76289			  -0.14293			 -0.57503
	70.00			  10.87456			  -0.46202			 -0.70966
	70.25			  10.99792			  -0.76242			 -0.54393
	70.50			  10.93223			  -0.59923			 -0.41042
	70.75			  10.88408			  -0.17780			 -0.16942
	71.00			  10.95834			  -0.34076			 -0.42898
	71.25			  10.81893			  -0.55592			 -0.34071
	71.50			  10.73148			  -0.44151			 -0.20974
	71.75			  11.09613			  -0.42943			 -0.07262
	72.00			  11.19324			  -0.45495			 0.11375
	72.25			  11.03873			  -0.17005			 0.15046
	72.50			  10.88721			  -0.01712			 0.23348
	72.75			  10.96406			  -0.23706			 0.15218
	73.00			  11.18494			  -0.33438			 0.06621
	73.25			  11.25948			  -0.24686			 0.16572
	73.50			  11.33551			  -0.21176			 0.49417
	73.75			  11.23227			  0.05559			 0.62602
	74.00			  10.99915			  0.16727			 0.20391
	74.25			  10.79608			  0.05263			 0.24182
	74.50			  10.67884			  0.56499			 -0.11863
	74.75			  10.73216			  0.33457			 -0.39268
	75.00			  10.94134			  0.35554			 -0.42390
	75.25			  11.04934			  0.06060			 -0.38227
	75.50			  11.21500			  0.07200			 -0.65917
	75.75			  11.28872			  0.24910			 -0.66632
	76.00			  10.99561			  0.22015			 -0.30641
	76.25			  10.85130			  -0.00207			 -0.28696
	76.50			  10.87157			  -0.34715			 -0.25355
	76.75			  10.68224			  -0.07683			 -0.15889
	77.00			  10.35635			  0.30608			 -0.18680
	77.25			  10.52338			  0.33935			 0.03369
	77.50			  10.29651			  0.21650			 0.04794
	77.75			  10.22700			  0.05286			 0.02777
	78.00			  10.22796			  -0.04105			 -0.15221
	78.25			  10.18688			  -0.12401			 -0.35082
	78.50			  10.27733			  -0.22088			 -0.21341
	78.75			  10.15628			  0.12784			 -0.11880
	79.00			  10.52270			  0.11234			 -0.28264
	79.25			  10.47196			  -0.02646			 -0.06866
	79.50			  10.46652			  -0.09917			 -0.19135
	79.75			  10.13275			  -0.10099			 -0.36306
	80.00			  10.12119			  -0.09621			 -0.47871
	80.25			  10.15396			  -0.08435			 -0.04306
	80.50			  10.30630			  -0.34532			 -0.23694
	80.75			  10.34615			  -0.49484			 0.09648
	81.00			  10.11847			  -0.23547			 0.32690
	81.25			  9.95389			  -0.10145			 -0.10018
	81.50			  9.92370			  -0.17461			 -0.30151
	81.75			  9.81584			  0.08955			 -0.50053
	82.00			  9.80727			  -0.11353			 -0.34703
	82.25			  10.04651			  -0.65119			 -0.49923
	82.50			  10.07957			  -0.21837			 -0.46298
	82.75			  10.21231			  -0.21541			 -0.39102
	83.00			  10.50053			  -0.19923			 -0.27555
	83.25			  10.31922			  -0.19649			 -0.20933
	83.50			  10.32262			  -0.21131			 0.01902
	83.75			  10.47496			  -0.04378			 -0.03413
	84.00			  10.23285			  0.08727			 -0.21648
	84.25			  10.10146			  0.28351			 -0.00900
	84.50			  10.00149			  0.09662			 -0.15286
	84.75			  9.93281			  0.29240			 -0.00652
	85.00			  10.00870			  0.20739			 0.07401
	85.25			  9.99619			  0.09023			 0.01004
	85.50			  10.45551			  -0.09256			 -0.26396
	85.75			  10.33445			  -0.23319			 -0.50686
	86.00			  10.15301			  -0.20059			 -0.57308
	86.25			  10.00054			  -0.12150			 -0.67490
	86.50			  9.71954			  -0.18373			 -0.45796
	86.75			  9.80904			  -0.38612			 -0.67413
	87.00			  9.54857			  -0.35695			 -0.59158
	87.25			  9.35734			  -0.51512			 -0.67584
	87.50			  9.20500			  -0.26692			 -0.83856
	87.75			  9.41623			  -0.03763			 -0.72379
	88.00			  9.39352			  0.28967			 -0.56066
	88.25			  9.55360			  0.01001			 -0.58514
	88.50			  9.63712			  0.09616			 -0.49881
	88.75			  9.85650			  0.09935			 -0.70475
	89.00			  9.69370			  -0.10145			 -0.61169
	89.25			  9.91581			  0.20328			 -0.27709
	89.50			  9.63888			  0.07633			 -0.65893
	89.75			  9.74593			  0.07747			 -0.79410
	90.00			  9.80564			  0.13627			 -1.12503
	90.25			  9.84494			  0.17046			 -0.86611
	90.50			  9.98490			  0.00362			 -0.35176
	90.75			  9.92070			  -0.20059			 -0.37015
	91.00			  10.16933			  -0.20424			 -0.11975
	91.25			  10.35214			  -0.21905			 -0.20111
	91.50			  10.12663			  -0.12036			 -0.12176
	91.75			  10.22197			  -0.21564			 -0.04992
	92.00			  10.49495			  -0.37951			 -0.39723
	92.25			  10.36261			  -0.04903			 -0.05636
	92.50			  10.20864			  -0.12356			 -0.53352
	92.75			  10.41797			  0.05468			 -0.27046
	93.00			  10.60281			  -0.02122			 -0.11005
	93.25			  10.10242			  -0.45632			 0.05799
	93.50			  10.30045			  -0.49005			 0.11463
	93.75			  10.31473			  -0.28492			 0.02665
	94.00			  10.27270			  -0.38567			 0.08395
	94.25			  10.55479			  -0.26122			 0.17967
	94.50			  10.73134			  -0.71387			 -0.03798
	94.75			  10.92421			  -0.46954			 -0.26142
	95.00			  10.89850			  -0.47410			 -0.25787
	95.25			  11.06171			  -0.24777			 -0.54706
	95.50			  11.01969			  -0.26076			 -0.57178
	95.75			  10.94202			  -0.50213			 -0.42762
	96.00			  10.84545			  -0.47957			 -0.59750
	96.25			  10.65653			  -0.79023			 -0.13441
	96.50			  10.71325			  -0.66624			 -0.62807
	96.75			  10.60553			  -0.80117			 -0.71552
	97.00			  10.42925			  -0.81325			 -0.75436
	97.25			  10.51644			  -1.02749			 -0.71971
	97.50			  10.78901			  -0.92584			 -0.30476
	97.75			  10.47441			  -0.83649			 -0.64072
	98.00			  10.46992			  -0.70612			 -0.49042
	98.25			  10.79907			  -0.54339			 -0.19177
	98.50			  10.50773			  -0.63478			 -0.02834
	98.75			  10.34520			  -0.89712			 -0.23126
	99.00			  10.89129			  -0.78293			 -0.45601
	99.25			  11.09300			  -0.54954			 -0.42721
	99.50			  10.93413			  -0.21700			 -0.21429
	99.75			  10.95100			  -0.35239			 -0.02591
	100.00			  11.04526			  -0.32595			 0.34582
	100.25			  11.28586			  -0.51125			 0.16921
	100.50			  11.20602			  -0.07752			 -0.06908
	100.75			  11.15461			  -0.38680			 -0.08126
	101.00			  11.22071			  -0.69837			 0.17110
	101.25			  10.93876			  -0.44698			 0.00454
	101.50			  11.13013			  -0.67946			 0.10411
	101.75			  11.18018			  -0.80869			 0.12669
	102.00			  10.97956			  -0.93541			 0.20906
	102.25			  11.24016			  -0.46726			 0.00182
	102.50			  11.14482			  -0.30566			 0.02653
	102.75			  11.06947			  -0.34464			 -0.17237
	103.00			  11.50702			  -0.48595			 -0.46754
	103.25			  11.68044			  -0.57324			 -0.54505
	103.50			  11.93152			  -0.64891			 -0.34916
	103.75			  11.96688			  -0.48823			 0.16601
	104.00			  11.94743			  -0.52219			 0.13704
	104.25			  12.16083			  -0.32162			 0.01855
	104.50			  12.11255			  -0.29313			 0.22626
	104.75			  12.05434			  -0.18350			 0.44096
	105.00			  11.88201			  -0.40253			 0.00779
	105.25			  11.41766			  -0.29131			 0.22851
	105.50			  11.20602			  -0.34304			 0.36776
	105.75			  11.12306			  -0.48777			 0.12941
	106.00			  11.45275			  -0.34874			 -0.16545
	106.25			  11.58142			  0.07998			 -0.17556
	106.50			  11.36938			  -0.16504			 -0.15044
	106.75			  11.48934			  -0.11854			 0.12604
	107.00			  11.29008			  0.04647			 0.51640
	107.25			  11.10959			  0.13605			 0.65730
	107.50			  11.28586			  0.06972			 0.53591
	107.75			  11.14903			  -0.31797			 0.40477
	108.00			  11.04104			  -0.63159			 0.35173
	108.25			  10.92502			  -0.87137			 0.48317
	108.50			  11.29457			  -0.92333			 0.31655
	108.75			  11.43629			  -1.06419			 -0.00930
	109.00			  11.40392			  -0.61495			 -0.08687
	109.25			  11.44337			  -0.72823			 -0.16037
	109.50			  11.81740			  -1.02612			 0.10547
	109.75			  12.10357			  -1.21142			 0.07756
	110.00			  12.11105			  -0.94818			 -0.15398
	110.25			  11.87820			  -1.03137			 -0.29896
	110.50			  11.69989			  -1.10134			 -0.16504
	110.75			  11.60005			  -1.01518			 -0.45541
	111.00			  11.34721			  -0.86590			 -0.41598
	111.25			  11.38134			  -0.98122			 -0.45246
	111.50			  11.51505			  -0.98031			 -0.55463
	111.75			  11.35224			  -1.01131			 -0.51431
	112.00			  11.59897			  -0.97894			 -0.40297
	112.25			  11.71322			  -0.86293			 -0.47859
	112.50			  11.78694			  -0.66555			 -0.44111
	112.75			  11.95301			  -0.46361			 -0.17444
	113.00			  11.92349			  -0.32960			 -0.11478
	113.25			  11.94770			  -0.33712			 0.09672
	113.50			  11.77252			  -0.64755			 -0.02562
	113.75			  11.69077			  -0.46134			 -0.17072
	114.00			  11.72437			  -0.72185			 0.29621
	114.25			  11.78476			  -0.65530			 0.46538
	114.50			  12.07855			  -0.52857			 0.49021
	114.75			  11.90581			  -0.68880			 0.04256
	115.00			  12.26339			  -0.20766			 -0.20335
	115.25			  12.21701			  0.06311			 -0.18325
	115.50			  11.86854			  -0.17735			 0.00170
	115.75			  11.51926			  0.10733			 -0.02408
	116.00			  11.77211			  -0.27809			 -0.00711
	116.25			  11.68193			  -0.30749			 0.04185
	116.50			  11.70152			  -0.58350			 0.06579
	116.75			  11.61610			  -0.82305			 -0.19981
	117.00			  11.44704			  -0.89074			 -0.22807
	117.25			  11.70084			  -0.91421			 -0.06305
	117.50			  11.70533			  -0.56755			 0.26150
	117.75			  11.72246			  -0.56322			 0.30360
	118.00			  11.35849			  -0.22498			 0.08335
	118.25			  10.88993			  -0.48823			 0.04758
	118.50			  10.90952			  -0.45951			 0.28190
	118.75			  10.78370			  -0.56983			 0.00661
	119.00			  10.95481			  -0.44492			 -0.24557
	119.25			  10.90911			  -0.46475			 0.03936
	119.50			  10.87279			  -0.61267			 0.22177
	119.75			  10.91877			  -0.35239			 0.35256
	120.00			  10.69774			  -0.52766			 0.17216
	120.25			  10.39430			  -0.24002			 0.16879
	120.50			  10.59682			  -0.04469			 -0.00451
	120.75			  10.59342			  -0.18464			 0.07573
	121.00			  10.70713			  0.03257			 0.11901
	121.25			  10.89496			  0.15451			 -0.08356
	121.50			  10.61777			  0.18733			 -0.06376
	121.75			  10.71733			  -0.23660			 0.19983
	122.00			  10.39362			  -0.19262			 -0.06334
	122.25			  10.33255			  -0.40094			 -0.33137
	122.50			  10.38614			  -0.02076			 -0.18189
	122.75			  10.42150			  0.56705			 0.19629
	123.00			  10.49930			  0.40864			 0.36941
	123.25			  10.69666			  0.17251			 -0.27159
	123.50			  10.96447			  0.18186			 -0.21045
	123.75			  11.04907			  0.44807			 -0.09421
	124.00			  11.28423			  0.38836			 -0.06299
	124.25			  11.12890			  0.38357			 -0.11614
	124.50			  11.08783			  0.14015			 -0.18225
	124.75			  10.94733			  -0.00618			 -0.23038
	125.00			  10.86898			  -0.28105			 -0.17882
	125.25			  10.91890			  -0.06771			 -0.22222
	125.50			  11.45697			  0.08249			 -0.08469
	125.75			  11.64031			  0.25707			 0.35552
	126.00			  11.70043			  0.31018			 0.43321
	126.25			  11.74015			  0.20146			 0.42044
	126.50			  11.43793			  0.02072			 0.36350
	126.75			  11.27131			  0.08317			 0.30301
	127.00			  11.32381			  0.19736			 0.18357
	127.25			  11.40188			  0.57935			 0.22171
	127.50			  11.50947			  0.39588			 0.20758
	127.75			  11.77755			  0.44009			 0.08625
	128.00			  11.57448			  0.60625			 0.34139
	128.25			  11.58033			  0.42961			 0.35865
	128.50			  11.54198			  0.50323			 0.22343
	128.75			  11.80312			  0.11599			 0.18629
	129.00			  11.71403			  -0.02099			 0.16341
	129.25			  11.96171			  0.26870			 0.06514
	129.50			  11.99218			  0.04146			 0.12876
	129.75			  12.13866			  -0.06658			 0.34795
	130.00			  12.13962			  0.05080			 0.27540
	130.25			  12.11337			  -0.07843			 0.33920
	130.50			  11.99925			  -0.54521			 0.15064
	130.75			  11.64820			  -0.33940			 0.08743
	131.00			  11.68941			  -0.29085			 0.15236
	131.25			  11.89969			  -0.85906			 0.23986
	131.50			  11.35265			  -0.77222			 0.27765
	131.75			  11.22765			  -0.95159			 0.10511
	132.00			  11.23159			  -1.06191			 0.22615
	132.25			  11.33129			  -0.83034			 0.50233
	132.50			  11.02390			  -0.72504			 0.62443
	132.75			  10.94678			  -0.76766			 0.38295
	133.00			  11.05587			  -0.57393			 0.15916
	133.25			  11.14686			  -0.41051			 0.39022
	133.50			  11.20412			  -0.65917			 -0.16859
	133.75			  11.13149			  -0.48413			 -0.01699
	134.00			  11.08157			  -0.50988			 -0.11768
	134.25			  11.02213			  -0.44333			 0.07242
	134.50			  11.07681			  -0.21381			 -0.20891
	134.75			  11.28627			  -0.21199			 -0.03123
	135.00			  11.31483			  -0.15319			 0.00649
	135.25			  10.97548			  -0.42806			 0.07318
	135.50			  10.92230			  -0.19284			 -0.05583
	135.75			  11.00037			  0.22767			 -0.01533
	136.00			  11.09273			  0.18642			 -0.04460
	136.25			  11.01057			  0.00909			 -0.47416
	136.50			  10.83036			  -0.20880			 -0.62363
	136.75			  10.67884			  0.05217			 -0.75223
	137.00			  10.53412			  -0.03649			 -1.13337
	137.25			  10.37771			  -0.19786			 -0.87788
	137.50			  10.17165			  0.24363			 -0.52856
	137.75			  10.08786			  0.16135			 -0.52383
	138.00			  9.96409			  0.23337			 -0.63954
	138.25			  9.66160			  0.19599			 -0.30174
	138.50			  9.36740			  -0.15934			 -0.25781
	138.75			  9.38753			  0.05901			 -0.11265
	139.00			  9.91023			  -0.27763			 -0.13867
	139.25			  9.76225			  -0.38020			 -0.24297
	139.50			  9.79339			  -0.20492			 -0.04010
	139.75			  9.77612			  0.16887			 0.15862
	140.00			  9.90479			  0.26733			 -0.13601
	140.25			  9.73953			  0.29263			 0.08489
	140.50			  9.68744			  0.05741			 -0.22866
	140.75			  9.62950			  0.08431			 -0.24516
	141.00			  9.86154			  0.02596			 -0.43939
	141.25			  9.93199			  0.09069			 -0.35768
	141.50			  9.64160			  0.28784			 -0.19224
	141.75			  9.62760			  0.09502			 -0.35916
	142.00			  9.43799			  -0.08777			 -0.59561
	142.25			  9.61631			  0.14494			 -0.34899
	142.50			  9.60189			  0.05855			 -0.71073
	142.75			  9.51742			  0.05947			 -0.71794
	143.00			  9.42793			  -0.14703			 -0.41716
	143.25			  9.35707			  0.22767			 -0.09846
	143.50			  9.52790			  0.08362			 -0.36034
	143.75			  9.65997			  0.43212			 -0.05264
	144.00			  9.64841			  0.59622			 0.14106
	144.25			  9.80224			  0.47451			 0.32353
	144.50			  10.14404			  0.24249			 0.36953
	144.75			  10.19082			  0.28032			 0.35280
	145.00			  10.18770			  0.58779			 0.31555
	145.25			  10.02353			  0.30767			 0.20285
	145.50			  9.92478			  0.65069			 0.24051
	145.75			  9.75395			  0.54744			 -0.03626
	146.00			  9.93893			  0.55770			 -0.30825
	146.25			  9.99537			  0.45400			 -0.00812
	146.50			  10.13234			  -0.04447			 0.11570
	146.75			  10.37879			  -0.30566			 0.06597
	147.00			  10.54255			  -0.26464			 -0.16262
	147.25			  10.17124			  -0.36880			 -0.25030
	147.50			  10.13615			  -0.53792			 0.13030
	147.75			  10.16104			  -0.14635			 0.20533
	148.00			  10.47319			  0.49366			 0.36941
	148.25			  10.09466			  0.76876			 0.45438
	148.50			  10.13547			  0.68990			 0.41825
	148.75			  10.43347			  0.65252			 0.19836
	149.00			  10.28875			  0.24773			 0.27162
	149.25			  10.40246			  0.15382			 0.37550
	149.50			  10.54283			  0.47383			 0.29420
	149.75			  10.42490			  0.32545			 0.19717
	150.00			  10.39362			  0.45445			 -0.04696
	150.25			  10.34044			  0.48613			 -0.32327
	150.50			  10.39267			  0.15656			 -0.32746
	150.75			  10.17532			  0.13855			 -0.32303
	151.00			  10.36710			  0.13673			 -0.52986
	151.25			  10.41919			  -0.00618			 -0.57550
	151.50			  10.03468			  0.17662			 -0.51620
	151.75			  10.25774			  0.21514			 -0.20850
	152.00			  10.35132			  0.44055			 -0.07351
	152.25			  10.42218			  0.54517			 0.05586
	152.50			  10.73420			  0.55998			 -0.12164
	152.75			  11.01438			  0.62608			 -0.25580
	153.00			  10.96882			  0.80386			 0.05870
	153.25			  10.81254			  0.77491			 -0.09403
	153.50			  10.69353			  0.54243			 -0.30724
	153.75			  10.58295			  0.21354			 -0.40362
	154.00			  10.77718			  0.60215			 -0.06783
	154.25			  10.93563			  0.72386			 0.09932
	154.50			  10.88327			  0.67052			 0.08004
	154.75			  10.62130			  0.78517			 0.15555
	155.00			  10.55792			  0.73457			 -0.08096
	155.25			  10.65694			  0.42437			 -0.19035
	155.50			  10.48080			  0.48682			 -0.34834
	155.75			  10.44394			  0.52625			 -0.31859
	156.00			  10.26726			  0.67668			 -0.24267
	156.25			  10.26903			  1.00306			 -0.50662
	156.50			  10.26169			  0.86790			 -0.45949
	156.75			  10.44870			  0.87975			 -0.72977
	157.00			  10.41253			  1.03337			 -0.84004
	157.25			  10.38627			  0.60260			 -0.56131
	157.50			  10.82804			  0.10254			 0.01299
	157.75			  10.81254			  0.29514			 0.25098
	158.00			  11.07083			  0.04397			 -0.08398
	158.25			  10.95807			  0.24545			 -0.11112
	158.50			  10.96787			  0.16089			 -0.35584
	158.75			  11.27294			  0.15884			 -0.46245
	159.00			  11.24016			  0.71656			 -0.41905
	159.25			  11.08334			  0.69172			 -0.38943
	159.50			  11.08756			  0.20602			 -0.79859
	159.75			  11.19922			  0.17479			 -0.48900
	160.00			  11.09830			  0.03736			 -0.55936
	160.25			  10.67013			  0.34779			 -0.83543
	160.50			  10.47849			  0.38220			 -0.87043
	160.75			  10.52378			  0.17001			 -0.74880
	161.00			  10.45415			  0.44807			 -0.82366
	161.25			  10.56908			  0.45787			 -0.60264
	161.50			  10.44204			  0.48272			 -0.48179
	161.75			  10.37335			  0.31838			 -0.38287
	162.00			  10.06828			  0.35006			 -0.37825
	162.25			  10.29732			  0.41457			 -0.21766
	162.50			  10.39090			  0.20397			 0.09376
	162.75			  10.29515			  0.09411			 -0.05471
	163.00			  10.16621			  -0.02259			 0.10393
	163.25			  9.94723			  -0.04652			 0.54739
	163.50			  9.93172			  -0.10760			 0.41204
	163.75			  10.14839			  0.11371			 0.11741
	164.00			  10.44177			  0.05468			 0.10955
	164.25			  10.30426			  0.07542			 -0.05234
	164.50			  9.99211			  0.14311			 0.13361
	164.75			  10.40695			  0.20875			 0.10174
	165.00			  10.35445			  0.02437			 0.03564
	165.25			  10.49740			  0.42619			 0.09885