--------------TurbSim v2.00.* User Time Series Input File-----------------------
     Time series input from low-res turbsim run
--------------------------------------------------------------------------------
          3 nComp - Number of velocity components in the file
          1 nPoints - Number of time series points contained in this file (-)
          1 RefPtID - Index of the reference point (1-nPoints)
     Pointyi Pointzi ! nPoints listed in order of increasing height
       (m)     (m)
       -3.07236   94.00000
--------Time Series-------------------------------------------------------------
Elapsed Time         Point01u             Point01v           Point01w
         (s)            (m/s)                (m/s)              (m/s)
	0.00			  9.67697			  0.47989			 -0.06675
	0.25			  9.66398			  0.47382			 -0.24927
	0.50			  9.60829			  0.44015			 0.01182
	0.75			  9.73730			  0.37554			 0.15866
	1.00			  9.71177			  0.28269			 0.29107
	1.25			  9.82372			  0.38578			 0.35059
	1.50			  9.66952			  0.42991			 0.20458
	1.75			  9.68895			  0.17583			 0.14700
	2.00			  9.54344			  -0.01551			 0.21449
	2.25			  9.53633			  0.25906			 0.15197
	2.50			  9.42980			  0.26617			 0.03501
	2.75			  9.60840			  0.10975			 -0.02465
	3.00			  9.83852			  0.45186			 -0.01506
	3.25			  9.84779			  0.12648			 -0.13756
	3.50			  9.66003			  -0.07009			 -0.16264
	3.75			  9.70601			  -0.08661			 -0.00658
	4.00			  9.99205			  -0.17967			 0.17203
	4.25			  9.95274			  -0.31685			 0.02058
	4.50			  9.80576			  -0.35909			 0.30103
	4.75			  10.20455			  -0.50359			 0.18844
	5.00			  10.14591			  -0.38523			 0.17627
	5.25			  9.95002			  -0.36034			 0.06073
	5.50			  9.83671			  -0.56653			 0.36544
	5.75			  9.68748			  -0.76017			 0.21514
	6.00			  9.54423			  -0.61191			 0.13994
	6.25			  9.18307			  -0.40530			 0.09476
	6.50			  9.14952			  -0.30200			 0.24262
	6.75			  8.95543			  -0.48832			 0.26807
	7.00			  9.22351			  -0.78966			 0.25520
	7.25			  9.51565			  -0.78840			 0.12357
	7.50			  9.72679			  -0.68489			 0.11657
	7.75			  9.77910			  -0.29259			 0.34949
	8.00			  9.66059			  -0.25599			 0.18923
	8.25			  9.46098			  -0.35051			 0.42777
	8.50			  9.47894			  -0.20580			 0.39315
	8.75			  9.44132			  -0.11735			 -0.07131
	9.00			  9.79774			  -0.37728			 0.04699
	9.25			  9.74024			  -0.39965			 -0.18713
	9.50			  9.73470			  -0.59581			 -0.26887
	9.75			  9.58874			  -0.51927			 -0.12834
	10.00			  9.63292			  -0.50944			 0.05184
	10.25			  9.73854			  -0.71291			 -0.26375
	10.50			  10.04130			  -0.74909			 -0.43812
	10.75			  10.19393			  -0.70371			 -0.42037
	11.00			  10.13236			  -0.60647			 -0.12438
	11.25			  10.17981			  -0.48414			 -0.08809
	11.50			  10.17585			  -0.67171			 -0.14932
	11.75			  10.19562			  -0.45152			 -0.00741
	12.00			  10.25742			  -0.37853			 0.25834
	12.25			  9.99069			  -0.57259			 0.18803
	12.50			  9.77887			  -0.53223			 0.38909
	12.75			  9.97318			  -0.90279			 0.13801
	13.00			  9.80870			  -0.43395			 0.11551
	13.25			  9.66195			  -0.61714			 0.15594
	13.50			  9.73109			  -0.76477			 0.19232
	13.75			  9.77684			  -0.77314			 0.17507
	14.00			  9.66285			  -0.75390			 0.04280
	14.25			  9.56592			  -0.71333			 -0.26624
	14.50			  9.50142			  -0.73675			 -0.09856
	14.75			  9.41556			  -0.64118			 -0.02078
	15.00			  9.23684			  -0.70726			 -0.06790
	15.25			  9.09970			  -0.77690			 -0.32147
	15.50			  9.28994			  -0.71061			 -0.49418
	15.75			  9.48831			  -0.48811			 -0.47920
	16.00			  9.35603			  -0.45047			 -0.33761
	16.25			  9.47363			  -0.24094			 -0.24236
	16.50			  9.69844			  -0.32103			 -0.10515
	16.75			  9.88269			  -0.06444			 -0.02986
	17.00			  9.90506			  0.29022			 -0.09492
	17.25			  9.63156			  0.47382			 0.00264
	17.50			  9.48278			  0.31385			 -0.11580
	17.75			  9.25187			  0.45040			 0.09222
	18.00			  9.20702			  0.40168			 0.13395
	18.25			  9.60083			  0.43994			 0.42307
	18.50			  9.66805			  0.43367			 0.62902
	18.75			  9.73911			  0.21912			 0.56973
	19.00			  9.58513			  0.16809			 0.18342
	19.25			  9.85716			  0.25362			 0.00564
	19.50			  10.11903			  -0.09226			 -0.01691
	19.75			  9.86428			  -0.05691			 -0.37528
	20.00			  9.81310			  -0.03558			 -0.12216
	20.25			  9.74984			  0.02527			 -0.25757
	20.50			  9.78633			  0.32054			 -0.24568
	20.75			  9.62184			  0.22581			 -0.33554
	21.00			  9.84530			  0.28854			 -0.44370
	21.25			  9.99273			  0.41966			 -0.11207
	21.50			  10.05350			  0.58193			 -0.10460
	21.75			  10.06424			  0.76386			 -0.03083
	22.00			  10.10807			  0.45646			 0.22971
	22.25			  10.01329			  0.37951			 0.05078
	22.50			  9.79288			  0.46776			 0.06963
	22.75			  9.90077			  0.41318			 0.20389
	23.00			  10.06672			  0.45458			 0.33644
	23.25			  9.82621			  0.46880			 0.23934
	23.50			  9.72566			  0.35818			 0.05409
	23.75			  9.79198			  -0.14432			 0.05497
	24.00			  9.94889			  -0.06256			 0.20260
	24.25			  10.11688			  -0.09957			 0.24930
	24.50			  10.33593			  -0.05148			 0.16687
	24.75			  10.38406			  0.08194			 0.11030
	25.00			  10.50900			  0.16182			 -0.21322
	25.25			  10.62186			  0.29754			 -0.14093
	25.50			  10.46189			  0.22874			 0.17493
	25.75			  10.40473			  0.12292			 0.39292
	26.00			  10.51770			  -0.15164			 0.38471
	26.25			  10.67055			  -0.03266			 0.38748
	26.50			  10.56797			  0.14279			 0.61689
	26.75			  10.27210			  0.22706			 0.61828
	27.00			  10.08039			  0.51732			 0.53432
	27.25			  10.14546			  0.67792			 0.36641
	27.50			  10.30441			  0.38578			 0.19628
	27.75			  10.17450			  0.52422			 0.40518
	28.00			  10.35005			  0.00080			 0.22717
	28.25			  10.31684			  0.13443			 0.32127
	28.50			  10.20827			  0.21159			 0.10559
	28.75			  10.23832			  0.23083			 0.12652
	29.00			  9.96098			  0.34710			 0.31924
	29.25			  9.95206			  0.44496			 0.26078
	29.50			  9.94370			  0.50331			 -0.07223
	29.75			  10.09451			  0.56144			 -0.03208
	30.00			  10.03792			  0.59176			 -0.00155
	30.25			  9.76159			  0.65554			 -0.00464
	30.50			  9.85197			  0.33497			 0.09633
	30.75			  9.94607			  0.45814			 0.10315
	31.00			  10.03724			  0.61790			 -0.12940
	31.25			  9.96833			  0.30653			 0.37641
	31.50			  9.96618			  0.22978			 0.39730
	31.75			  9.92766			  0.23501			 0.11666
	32.00			  10.00594			  0.01795			 0.29388
	32.25			  9.86654			  -0.06570			 0.34386
	32.50			  10.05350			  0.02673			 0.36701
	32.75			  10.28193			  0.13150			 0.23893
	33.00			  10.03724			  0.11749			 0.49075
	33.25			  9.86982			  -0.16147			 0.32745
	33.50			  10.03238			  -0.39087			 0.32713
	33.75			  10.12976			  -0.09999			 0.38485
	34.00			  9.88303			  0.03112			 0.34501
	34.25			  9.90133			  -0.19451			 0.68518
	34.50			  10.08717			  -0.20037			 0.61067
	34.75			  10.13552			  -0.07615			 0.44953
	35.00			  10.27470			  -0.27816			 0.61680
	35.25			  10.13868			  -0.41408			 0.35797
	35.50			  10.03227			  -0.33943			 0.19628
	35.75			  9.93025			  -0.50066			 0.24967
	36.00			  10.07056			  -0.64641			 0.25931
	36.25			  10.21471			  -0.66962			 0.34322
	36.50			  10.45952			  -0.64641			 0.52326
	36.75			  10.59859			  -0.53579			 0.33718
	37.00			  11.08063			  -0.74051			 0.45843
	37.25			  10.94168			  -0.95946			 0.43340
	37.50			  10.87616			  -0.68322			 0.34409
	37.75			  10.89480			  -0.74783			 0.09241
	38.00			  10.61101			  -0.51404			 0.17148
	38.25			  10.69597			  -0.65268			 0.19637
	38.50			  10.49420			  -0.63491			 0.30269
	38.75			  10.57837			  -0.23592			 0.36871
	39.00			  10.63338			  -0.42098			 0.24142
	39.25			  10.59554			  -0.55022			 0.19577
	39.50			  10.45624			  -0.40007			 0.08817
	39.75			  10.36971			  -0.50149			 -0.10248
	40.00			  10.32531			  -0.01593			 0.02869
	40.25			  10.39897			  0.05245			 0.31316
	40.50			  10.50539			  -0.23571			 0.58181
	40.75			  10.48313			  -0.20727			 0.53875
	41.00			  10.44088			  -0.30451			 0.51261
	41.25			  10.52143			  -0.38732			 0.41053
	41.50			  10.40360			  -0.24365			 0.21809
	41.75			  10.14456			  -0.30388			 0.28374
	42.00			  10.47748			  -0.41074			 0.14630
	42.25			  10.37310			  -0.17088			 -0.01031
	42.50			  10.59836			  0.11791			 -0.23950
	42.75			  10.80408			  0.10996			 -0.39220
	43.00			  10.53984			  0.20636			 -0.22595
	43.25			  10.46336			  0.02861			 0.06908
	43.50			  10.54606			  -0.10815			 0.00167
	43.75			  10.78454			  -0.12300			 -0.02557
	44.00			  10.88565			  0.01753			 -0.05425
	44.25			  10.63993			  0.19068			 -0.13595
	44.50			  10.74703			  0.29942			 -0.06993
	44.75			  10.90711			  0.52715			 0.11177
	45.00			  10.83323			  0.53279			 0.13127
	45.25			  10.82961			  0.75362			 0.04377
	45.50			  11.00709			  0.95834			 -0.06656
	45.75			  11.10085			  0.95751			 -0.00935
	46.00			  11.00268			  0.86549			 0.25682
	46.25			  11.13136			  0.73312			 0.07655
	46.50			  10.80227			  0.45939			 0.05137
	46.75			  10.77539			  0.22246			 -0.16527
	47.00			  10.78228			  0.61226			 -0.05365
	47.25			  10.95252			  0.53342			 -0.20308
	47.50			  10.81990			  0.52087			 -0.04222
	47.75			  10.46935			  0.62355			 0.04215
	48.00			  10.24397			  0.59992			 0.08863
	48.25			  10.39648			  0.76031			 -0.03959
	48.50			  10.74692			  1.00623			 -0.15693
	48.75			  10.79131			  1.03613			 -0.14024
	49.00			  11.03465			  1.23416			 -0.20040
	49.25			  11.15621			  0.97131			 -0.07468
	49.50			  11.00675			  0.84960			 -0.05877
	49.75			  10.81267			  0.46776			 -0.06947
	50.00			  10.77606			  0.60410			 -0.24540
	50.25			  10.47793			  0.68377			 -0.23706
	50.50			  10.40315			  0.66851			 -0.36924
	50.75			  10.62231			  0.61037			 -0.31608
	51.00			  10.90745			  0.84228			 -0.30063
	51.25			  10.80318			  1.04889			 -0.04872
	51.50			  10.72703			  0.87051			 -0.01686
	51.75			  10.65101			  0.98553			 -0.05328
	52.00			  10.37536			  0.89540			 -0.23406
	52.25			  10.26453			  0.98929			 -0.37021
	52.50			  10.26148			  1.10995			 -0.15877
	52.75			  10.42269			  1.08716			 -0.00100
	53.00			  10.33650			  0.73375			 -0.09436
	53.25			  10.23742			  1.13358			 -0.11525
	53.50			  10.47714			  1.09970			 -0.18961
	53.75			  10.66682			  1.01250			 0.04506
	54.00			  10.85356			  0.84772			 0.03727
	54.25			  10.54832			  0.67185			 0.01975
	54.50			  10.47432			  0.42635			 0.12828
	54.75			  10.74647			  0.28311			 0.31583
	55.00			  10.85029			  0.39938			 0.22551
	55.25			  10.87898			  0.48616			 0.09033
	55.50			  10.87672			  0.70866			 0.02380
	55.75			  10.93083			  0.58883			 0.08120
	56.00			  10.95185			  0.36090			 -0.03028
	56.25			  10.87649			  0.53551			 0.08817
	56.50			  10.88271			  0.35609			 0.32510
	56.75			  10.96879			  0.30883			 0.10034
	57.00			  10.78352			  0.44852			 0.04709
	57.25			  10.67496			  0.19277			 0.01182
	57.50			  10.87051			  0.27893			 -0.09777
	57.75			  10.89762			  0.26533			 -0.03415
	58.00			  10.87435			  -0.08452			 -0.15974
	58.25			  10.63609			  -0.28631			 -0.07666
	58.50			  10.86701			  -0.36661			 -0.00036
	58.75			  10.79866			  -0.12007			 -0.16490
	59.00			  10.64016			  -0.13972			 -0.17449
	59.25			  10.50798			  -0.18259			 -0.20133
	59.50			  10.42529			  -0.32061			 0.00237
	59.75			  10.58616			  -0.25348			 -0.03765
	60.00			  10.59249			  0.11581			 -0.16463
	60.25			  10.52482			  0.02673			 -0.09492
	60.50			  10.29142			  0.15304			 0.11315
	60.75			  10.32836			  0.46525			 -0.03383
	61.00			  10.28668			  0.52735			 0.02786
	61.25			  10.16478			  0.42907			 -0.23157
	61.50			  10.06107			  0.18231			 -0.34430
	61.75			  10.11666			  0.02129			 -0.05868
	62.00			  10.15122			  0.13234			 0.17609
	62.25			  10.49172			  0.29503			 0.11030
	62.50			  10.34022			  0.33371			 0.30223
	62.75			  10.49465			  0.31510			 0.33058
	63.00			  10.49432			  0.17479			 0.18973
	63.25			  10.48076			  0.34689			 0.07337
	63.50			  10.50075			  0.40251			 0.25751
	63.75			  10.37581			  0.27976			 0.38928
	64.00			  10.36587			  0.37303			 0.30956
	64.25			  10.29752			  0.20762			 0.24723
	64.50			  10.28769			  0.45437			 0.06548
	64.75			  10.08276			  0.54743			 -0.05637
	65.00			  9.88992			  0.46065			 -0.19367
	65.25			  10.12004			  0.37909			 0.01080
	65.50			  10.14072			  0.49306			 0.12104
	65.75			  10.25832			  0.36822			 -0.01133
	66.00			  10.20839			  0.48595			 -0.17408
	66.25			  9.97770			  0.45897			 -0.24688
	66.50			  9.97058			  0.72999			 -0.21161
	66.75			  9.95048			  0.67478			 -0.32927
	67.00			  9.84858			  0.63296			 -0.28510
	67.25			  9.92743			  0.49641			 -0.26993
	67.50			  10.11767			  0.62397			 0.08323
	67.75			  10.15190			  0.69757			 0.22316
	68.00			  10.18625			  0.69632			 0.19255
	68.25			  10.28171			  0.89142			 0.20048
	68.50			  10.06593			  0.48825			 0.07074
	68.75			  9.84282			  0.38955			 -0.00160
	69.00			  10.04097			  0.63379			 0.00739
	69.25			  10.18602			  0.50184			 -0.04291
	69.50			  10.15518			  0.32702			 -0.00870
	69.75			  10.18737			  0.50916			 -0.07279
	70.00			  10.15473			  0.51063			 -0.20875
	70.25			  10.42292			  0.34793			 -0.12894
	70.50			  10.40021			  0.36592			 -0.02295
	70.75			  10.20093			  0.28875			 0.18088
	71.00			  10.36835			  0.33873			 0.23967
	71.25			  10.47206			  0.32242			 0.01085
	71.50			  10.48562			  0.32932			 0.25585
	71.75			  10.64185			  0.14739			 0.34488
	72.00			  10.89638			  0.04555			 0.09886
	72.25			  10.75720			  0.37993			 0.32574
	72.50			  10.57870			  0.27223			 0.08134
	72.75			  10.29040			  0.27600			 -0.02087
	73.00			  10.19709			  0.38181			 0.23944
	73.25			  9.99476			  0.17144			 0.27733
	73.50			  9.87399			  0.12690			 -0.06393
	73.75			  9.95590			  0.18190			 0.14409
	74.00			  9.85129			  0.37386			 0.35405
	74.25			  9.82485			  0.44434			 0.04912
	74.50			  9.67347			  0.52484			 0.29112
	74.75			  9.38641			  0.39603			 0.43787
	75.00			  9.42008			  0.38829			 0.17286
	75.25			  9.53813			  0.33539			 0.04644
	75.50			  9.60750			  0.37094			 0.07184
	75.75			  9.31750			  0.25885			 -0.09667
	76.00			  9.48041			  0.25822			 -0.10944
	76.25			  9.48752			  0.22246			 -0.19150
	76.50			  9.40392			  0.43409			 0.14331
	76.75			  9.36518			  0.47194			 -0.00948
	77.00			  9.59315			  0.50623			 -0.20930
	77.25			  9.48334			  0.24421			 -0.15075
	77.50			  9.38020			  0.14990			 -0.23051
	77.75			  9.48120			  0.55747			 -0.32572
	78.00			  9.87648			  0.73103			 -0.08122
	78.25			  9.93940			  0.22581			 -0.01972
	78.50			  10.03193			  -0.13429			 -0.04475
	78.75			  9.94584			  -0.21772			 -0.26942
	79.00			  9.66331			  0.07462			 -0.06352
	79.25			  9.68951			  -0.10982			 -0.00690
	79.50			  9.66398			  -0.02429			 -0.11635
	79.75			  9.33072			  -0.29050			 -0.12544
	80.00			  9.33806			  0.08633			 -0.20220
	80.25			  9.21154			  -0.30033			 -0.24102
	80.50			  9.17900			  -0.27356			 -0.25158
	80.75			  9.02762			  -0.26436			 -0.31875
	81.00			  8.82619			  0.18984			 -0.18519
	81.25			  8.82506			  0.31259			 -0.16292
	81.50			  8.99475			  0.60452			 -0.06352
	81.75			  9.11224			  0.56604			 0.05064
	82.00			  9.27130			  0.46316			 0.23884
	82.25			  9.30090			  0.37763			 0.12777
	82.50			  9.43623			  0.29586			 0.25207
	82.75			  9.81209			  0.32681			 0.25917
	83.00			  9.79559			  0.32388			 0.10956
	83.25			  9.61913			  0.26366			 -0.22830
	83.50			  9.72691			  0.10076			 -0.13623
	83.75			  9.97567			  -0.14391			 -0.20912
	84.00			  9.78249			  -0.24512			 0.18033
	84.25			  9.93466			  -0.32709			 0.13528
	84.50			  9.91353			  -0.40990			 -0.25282
	84.75			  10.03204			  -0.61170			 -0.32622
	85.00			  9.91963			  -0.58096			 0.06691
	85.25			  9.84146			  -0.39213			 0.03681
	85.50			  9.73674			  -0.08138			 0.01283
	85.75			  9.75933			  -0.19472			 0.08886
	86.00			  9.82372			  -0.48226			 0.13455
	86.25			  9.90280			  -0.44901			 0.01988
	86.50			  10.00097			  -0.34110			 -0.10409
	86.75			  9.96753			  -0.39568			 -0.00132
	87.00			  9.86993			  -0.50338			 0.05792
	87.25			  9.96200			  -0.40509			 -0.09339
	87.50			  10.06503			  -0.16565			 -0.16140
	87.75			  9.81864			  -0.12216			 0.12726
	88.00			  9.97409			  0.24609			 0.16087
	88.25			  10.18963			  0.02422			 -0.03996
	88.50			  9.76927			  -0.16503			 0.07387
	88.75			  9.77108			  0.15868			 -0.03636
	89.00			  9.73515			  0.16328			 -0.12193
	89.25			  9.54615			  0.21096			 0.27106
	89.50			  9.47668			  0.29043			 0.25447
	89.75			  9.43047			  0.43158			 0.29024
	90.00			  9.40178			  0.60891			 0.60606
	90.25			  9.08162			  0.67813			 0.49375
	90.50			  9.09472			  0.58653			 0.39241
	90.75			  9.51204			  0.45897			 0.46249
	91.00			  9.43703			  0.26638			 0.41592
	91.25			  9.47126			  0.41004			 0.50689
	91.50			  9.63303			  -0.16503			 0.52699
	91.75			  9.51260			  0.01000			 0.53220
	92.00			  9.68906			  -0.04792			 0.30998
	92.25			  9.44945			  0.11665			 0.35479
	92.50			  9.51870			  -0.29112			 0.28098
	92.75			  9.62478			  -0.24073			 0.08807
	93.00			  9.74363			  -0.08682			 0.11458
	93.25			  10.03374			  -0.03935			 -0.12244
	93.50			  10.21166			  -0.01948			 -0.46380
	93.75			  10.16037			  0.05475			 -0.65334
	94.00			  10.07791			  -0.15687			 -0.48561
	94.25			  10.16455			  -0.39756			 -0.42152
	94.50			  10.15427			  -0.66649			 -0.50815
	94.75			  10.14117			  -0.59790			 -0.36269
	95.00			  9.84225			  -0.54896			 -0.23844
	95.25			  9.44787			  -0.64537			 -0.09542
	95.50			  9.53972			  -0.78568			 0.05714
	95.75			  9.44550			  -0.55984			 0.30707
	96.00			  9.77515			  -0.57510			 0.26585
	96.25			  9.89444			  -0.39652			 -0.04554
	96.50			  9.63359			  -0.68342			 0.14672
	96.75			  9.96155			  -0.61128			 0.27434
	97.00			  9.95997			  -0.47975			 0.37853
	97.25			  9.81107			  -0.36578			 -0.03641
	97.50			  9.85773			  -0.26959			 -0.04867
	97.75			  9.67901			  -0.38125			 0.26424
	98.00			  9.73470			  -0.23362			 0.05469
	98.25			  9.80000			  -0.14265			 0.01652
	98.50			  9.88032			  -0.08786			 0.33967
	98.75			  9.65698			  0.41109			 0.21380
	99.00			  9.66669			  0.47047			 0.25493
	99.25			  9.89196			  0.37407			 0.32680
	99.50			  9.83118			  0.11059			 0.09656
	99.75			  9.64128			  0.07943			 0.07143
	100.00			  9.68725			  0.12334			 -0.08754
	100.25			  9.71527			  0.06040			 0.06410
	100.50			  9.65980			  -0.13011			 -0.09980
	100.75			  9.65720			  -0.13450			 -0.22714
	101.00			  9.64241			  -0.32437			 0.05114
	101.25			  9.56050			  -0.25537			 0.02081
	101.50			  9.92675			  -0.12676			 0.31735
	101.75			  9.78159			  -0.31664			 0.43607
	102.00			  9.49080			  -0.15248			 0.61625
	102.25			  9.62173			  0.06019			 0.34857
	102.50			  9.62941			  -0.07992			 0.33621
	102.75			  9.75741			  -0.11484			 0.29739
	103.00			  9.77786			  -0.07678			 0.27775
	103.25			  9.74702			  0.16747			 0.25198
	103.50			  9.97363			  0.35881			 -0.01967
	103.75			  9.97533			  0.58591			 0.02228
	104.00			  10.05509			  0.53572			 0.17346
	104.25			  10.09474			  0.44015			 0.17212
	104.50			  10.19043			  0.34919			 0.34926
	104.75			  10.20240			  0.20009			 0.13842
	105.00			  9.82158			  0.54847			 -0.01446
	105.25			  9.75967			  0.56437			 0.04879
	105.50			  9.93861			  0.63672			 -0.11820
	105.75			  9.73199			  0.36027			 -0.15550
	106.00			  9.62546			  0.37073			 -0.09653
	106.25			  9.56468			  0.36341			 0.05267
	106.50			  9.43262			  0.43053			 -0.13300
	106.75			  9.64760			  0.47654			 -0.43632
	107.00			  9.71358			  0.59741			 -0.22447
	107.25			  9.59564			  0.51774			 -0.13835
	107.50			  9.58016			  0.44099			 -0.30732
	107.75			  9.66500			  0.72497			 -0.25813
	108.00			  9.77379			  0.29649			 -0.18293
	108.25			  9.96494			  0.38516			 0.13847
	108.50			  9.85502			  0.48825			 0.30085
	108.75			  10.00063			  0.33664			 0.27637
	109.00			  9.85423			  0.06312			 0.19522
	109.25			  9.49927			  -0.34487			 0.15760
	109.50			  9.62151			  -0.34445			 0.36668
	109.75			  9.66884			  -0.31454			 -0.12281
	110.00			  10.00063			  -0.19744			 -0.08514
	110.25			  10.05881			  0.07023			 -0.04983
	110.50			  10.14253			  0.16245			 -0.18215
	110.75			  10.06277			  0.13234			 -0.00178
	111.00			  9.96482			  -0.04332			 0.00596
	111.25			  9.78802			  0.09449			 0.10338
	111.50			  9.65574			  -0.18698			 -0.02096
	111.75			  9.80192			  -0.17465			 -0.22189
	112.00			  9.99815			  -0.00965			 -0.31437
	112.25			  9.93692			  -0.13450			 -0.19750
	112.50			  9.80271			  -0.15415			 0.12763
	112.75			  9.94630			  -0.30472			 0.16696
	113.00			  9.99137			  0.04032			 0.20168
	113.25			  10.05927			  -0.39464			 0.32750
	113.50			  10.34214			  -0.73006			 0.16193
	113.75			  10.34678			  -0.38899			 0.37480
	114.00			  10.41196			  -0.16168			 0.54202
	114.25			  10.41727			  -0.22316			 0.43349
	114.50			  10.14061			  -0.33462			 0.08734
	114.75			  10.00459			  -0.41367			 0.43994
	115.00			  10.03227			  -0.34298			 0.48365
	115.25			  9.78554			  -0.37937			 0.50048
	115.50			  9.85230			  -0.31475			 0.10131
	115.75			  9.94822			  -0.39255			 0.32920
	116.00			  9.77447			  -0.15185			 0.49232
	116.25			  9.79548			  -0.30994			 0.45760
	116.50			  9.99725			  -0.32667			 0.30154
	116.75			  10.14117			  -0.32960			 0.19716
	117.00			  10.31594			  -0.25997			 0.10965
	117.25			  10.42608			  -0.29614			 0.21385
	117.50			  10.32204			  -0.06632			 0.13754
	117.75			  10.14546			  0.03321			 -0.18703
	118.00			  10.03509			  0.05747			 -0.26048
	118.25			  10.02425			  0.08884			 -0.52618
	118.50			  9.86055			  0.19277			 -0.61428
	118.75			  9.80158			  0.20155			 -0.31843
	119.00			  9.68703			  0.00561			 -0.14618
	119.25			  9.62015			  -0.23926			 -0.02876
	119.50			  9.47871			  -0.45883			 -0.14545
	119.75			  9.55836			  -0.41952			 -0.18699
	120.00			  9.62580			  -0.47138			 0.17812
	120.25			  9.44233			  -0.45758			 0.31343
	120.50			  9.35173			  -0.25286			 0.44207
	120.75			  9.28847			  -0.22337			 0.62432
	121.00			  9.37772			  -0.26959			 0.54861
	121.25			  9.32372			  -0.15102			 0.46369
	121.50			  9.25141			  0.01586			 0.23349
	121.75			  9.51644			  0.12962			 0.39001
	122.00			  9.40099			  -0.03517			 0.41293
	122.25			  9.55655			  0.04555			 0.18780
	122.50			  9.51791			  0.11602			 0.05709
	122.75			  9.53870			  -0.04311			 -0.17191
	123.00			  9.57733			  -0.12906			 -0.08072
	123.25			  9.53587			  -0.24031			 0.28051
	123.50			  9.66602			  -0.14307			 0.23496
	123.75			  9.68488			  -0.10062			 0.08084
	124.00			  9.59304			  0.08675			 -0.04107
	124.25			  9.67517			  0.13777			 0.12090
	124.50			  9.69754			  0.24860			 0.15562
	124.75			  9.52582			  -0.18678			 0.12099
	125.00			  10.02345			  0.01168			 -0.12018
	125.25			  10.00210			  0.28143			 -0.00875
	125.50			  9.80678			  0.13317			 -0.06204
	125.75			  9.82497			  0.05726			 -0.12599
	126.00			  9.74261			  -0.26687			 0.24746
	126.25			  9.98527			  -0.04228			 0.47531
	126.50			  9.75639			  0.15157			 0.54668
	126.75			  9.93568			  0.16266			 0.56470
	127.00			  10.08152			  0.07106			 0.48199
	127.25			  10.04910			  0.02004			 0.50182
	127.50			  9.90811			  0.19340			 0.62473
	127.75			  9.63608			  0.27934			 0.49223
	128.00			  9.82508			  0.34772			 0.63266
	128.25			  9.98064			  0.46106			 0.62432
	128.50			  9.87479			  0.54074			 0.53381
	128.75			  9.93184			  0.51355			 0.37909
	129.00			  9.71233			  0.19110			 0.18425
	129.25			  9.73380			  0.16391			 0.13339
	129.50			  9.80825			  0.34710			 0.46784
	129.75			  10.05735			  0.16496			 0.80509
	130.00			  9.98019			  0.06228			 0.61095
	130.25			  10.03543			  0.09469			 0.36825
	130.50			  10.08762			  0.47403			 0.36461
	130.75			  10.06650			  0.39185			 0.39241
	131.00			  9.82474			  0.45939			 0.54824
	131.25			  9.61620			  0.80004			 0.40172
	131.50			  9.96629			  0.57441			 0.33197
	131.75			  10.30825			  0.34312			 0.15977
	132.00			  10.56391			  0.25906			 0.19697
	132.25			  10.62965			  0.14990			 0.10384
	132.50			  10.45839			  0.09971			 0.28780
	132.75			  10.34791			  0.45793			 -0.19316
	133.00			  10.41286			  0.47863			 -0.14277
	133.25			  10.20681			  0.47738			 -0.22751
	133.50			  10.21731			  0.55893			 -0.35937
	133.75			  10.28171			  0.36383			 -0.17283
	134.00			  10.17122			  0.37595			 -0.08445
	134.25			  10.08186			  0.08298			 0.01693
	134.50			  10.09960			  0.05726			 -0.18238
	134.75			  10.07734			  -0.05796			 -0.14439
	135.00			  10.53984			  -0.09184			 -0.33826
	135.25			  10.60977			  -0.05064			 -0.14849
	135.50			  10.56786			  0.06918			 -0.21866
	135.75			  10.39513			  0.18921			 -0.17827
	136.00			  10.44122			  0.28520			 0.09688
	136.25			  10.39411			  -0.02952			 0.39956
	136.50			  10.13676			  -0.17151			 0.33321
	136.75			  10.38281			  -0.27649			 0.29103
	137.00			  10.29922			  -0.07197			 0.01661
	137.25			  10.27323			  0.09762			 -0.08367
	137.50			  10.22759			  0.13652			 -0.00935
	137.75			  10.20229			  -0.16670			 0.18369
	138.00			  10.16659			  -0.29154			 0.32501
	138.25			  10.01114			  -0.24867			 0.24843
	138.50			  10.02809			  -0.11233			 0.20214
	138.75			  9.78170			  -0.07323			 0.29716
	139.00			  9.57462			  -0.09665			 0.22934
	139.25			  9.91320			  -0.11923			 -0.05250
	139.50			  9.92280			  -0.06737			 0.06834
	139.75			  9.81502			  0.11519			 -0.18219
	140.00			  9.82982			  -0.02262			 0.04464
	140.25			  9.77402			  -0.12467			 0.16627
	140.50			  9.86891			  -0.24637			 0.22717
	140.75			  10.00357			  -0.16942			 0.25742
	141.00			  9.79412			  -0.21250			 0.64585
	141.25			  9.74871			  -0.39338			 0.79490
	141.50			  9.83683			  -0.62236			 0.84456
	141.75			  9.72702			  -0.62529			 0.71671
	142.00			  9.73007			  -0.62508			 0.51878
	142.25			  9.45849			  -0.64516			 0.46622
	142.50			  9.60015			  -0.80241			 0.73972
	142.75			  9.56174			  -0.99333			 0.29587
	143.00			  9.45476			  -1.00254			 0.44220
	143.25			  9.59744			  -0.86703			 0.47448
	143.50			  10.09542			  -0.88334			 0.07493
	143.75			  10.09259			  -0.91743			 0.12883
	144.00			  10.09700			  -0.99166			 0.07507
	144.25			  9.92065			  -0.81329			 0.04787
	144.50			  9.93579			  -0.82918			 0.03644
	144.75			  10.00899			  -0.62989			 0.07894
	145.00			  10.24149			  -0.59079			 0.13538
	145.25			  10.20489			  -0.34696			 0.05271
	145.50			  10.07361			  -0.16440			 0.14183
	145.75			  10.38993			  -0.12362			 0.07493
	146.00			  10.25267			  -0.03914			 0.16936
	146.25			  10.08830			  0.00561			 0.11850
	146.50			  10.24352			  -0.27858			 -0.03097
	146.75			  10.41704			  -0.24679			 0.09946
	147.00			  10.31458			  -0.17151			 0.22256
	147.25			  10.07237			  -0.16586			 0.21813
	147.50			  10.37649			  0.03489			 0.42210
	147.75			  10.62841			  0.09239			 0.28600
	148.00			  10.56481			  0.06876			 0.29651
	148.25			  10.47296			  0.02610			 0.20006
	148.50			  10.49138			  0.09030			 0.24086
	148.75			  10.48178			  0.01837			 0.44114
	149.00			  10.51307			  0.47361			 0.49628
	149.25			  10.22499			  0.21243			 0.44958
	149.50			  10.04097			  0.24714			 0.55640
	149.75			  9.93952			  0.36341			 0.49071
	150.00			  10.22217			  0.27328			 0.32284
	150.25			  10.11293			  0.18775			 0.43653
	150.50			  9.87761			  0.25237			 0.29066
	150.75			  10.13835			  0.34605			 0.53732
	151.00			  9.98324			  0.31824			 0.61168
	151.25			  10.14501			  0.35086			 0.48176
	151.50			  10.57238			  0.07420			 0.66415
	151.75			  10.64423			  0.31155			 0.59338
	152.00			  10.65202			  0.51334			 0.52953
	152.25			  10.47003			  0.81426			 0.76784
	152.50			  10.61339			  0.70427			 0.61556
	152.75			  10.59746			  0.65261			 0.36092
	153.00			  10.43907			  0.69925			 0.62312
	153.25			  10.46946			  0.82242			 0.60551
	153.50			  10.57825			  0.87093			 0.39384
	153.75			  10.41693			  0.83371			 0.44170
	154.00			  10.59983			  0.68545			 0.30274
	154.25			  10.57735			  0.88829			 0.26378
	154.50			  10.40552			  0.87888			 0.04261
	154.75			  10.47669			  0.70928			 0.04755
	155.00			  10.48855			  0.79628			 -0.07638
	155.25			  10.38406			  0.80067			 -0.16426
	155.50			  10.37005			  0.40398			 -0.37293
	155.75			  10.72670			  0.29126			 -0.10759
	156.00			  10.77923			  0.04179			 -0.11133
	156.25			  10.96777			  -0.06758			 0.36885
	156.50			  10.89875			  -0.13617			 0.12546
	156.75			  10.89016			  -0.17046			 0.09619
	157.00			  10.69145			  -0.19828			 0.17415
	157.25			  10.65168			  -0.17297			 -0.01824
	157.50			  10.48765			  -0.28401			 0.03215
	157.75			  10.68648			  -0.23529			 0.02712
	158.00			  10.77968			  -0.00275			 -0.03074
	158.25			  10.75901			  -0.05775			 0.20942
	158.50			  10.74161			  0.31176			 0.17470
	158.75			  10.93964			  0.00394			 0.14976
	159.00			  10.78996			  0.00666			 -0.15218
	159.25			  10.68580			  0.42321			 -0.26933
	159.50			  10.83967			  0.28248			 -0.25905
	159.75			  10.69698			  -0.00254			 -0.16204
	160.00			  10.63101			  0.25299			 0.17037
	160.25			  10.78442			  0.43681			 0.04331
	160.50			  10.57091			  0.30506			 0.33543
	160.75			  10.51646			  0.08738			 0.40292
	161.00			  10.42484			  0.13213			 0.18987
	161.25			  10.46619			  0.31155			 0.11989
	161.50			  10.45839			  0.19653			 0.31970
	161.75			  10.66083			  0.24505			 0.29937
	162.00			  10.57791			  0.24170			 0.39126
	162.25			  10.57351			  0.25801			 0.26152
	162.50			  10.60039			  -0.03454			 -0.07408
	162.75			  10.70964			  0.32430			 0.03284
	163.00			  10.68580			  0.36759			 0.00241
	163.25			  10.69450			  0.55663			 -0.17800
	163.50			  10.79493			  0.62878			 -0.13157
	163.75			  10.74929			  0.23250			 -0.02590
	164.00			  10.81854			  0.05852			 -0.20866
	164.25			  10.81899			  -0.09476			 -0.19754
	164.50			  10.77403			  0.09929			 -0.06956
	164.75			  10.58650			  0.00540			 -0.15485
	165.00			  10.50347			  -0.01405			 -0.23982
	165.25			  10.69213			  0.08926			 -0.28247
	165.50			  10.66919			  0.49578			 0.04787
	165.75			  10.82351			  0.36989			 0.08664
	166.00			  10.68987			  0.22518			 -0.00958
	166.25			  10.54233			  0.55161			 0.01703
	166.50			  10.52075			  0.29314			 -0.06292
	166.75			  10.50132			  0.26094			 -0.30972
	167.00			  10.53973			  0.51543			 -0.41036
	167.25			  10.61135			  0.41527			 -0.36726