--------------TurbSim v2.00.* User Time Series Input File-----------------------
     Time series input from low-res turbsim run
--------------------------------------------------------------------------------
          3 nComp - Number of velocity components in the file
          1 nPoints - Number of time series points contained in this file (-)
          1 RefPtID - Index of the reference point (1-nPoints)
     Pointyi Pointzi ! nPoints listed in order of increasing height
       (m)     (m)
       4.30608   94.00000
--------Time Series-------------------------------------------------------------
Elapsed Time         Point01u             Point01v           Point01w
         (s)            (m/s)                (m/s)              (m/s)
	0.00			  10.11582			  0.56609			 0.49466
	0.25			  10.35798			  0.53769			 0.40756
	0.50			  10.49522			  0.74964			 0.36329
	0.75			  10.28076			  0.60175			 0.43747
	1.00			  10.26507			  0.19058			 0.50160
	1.25			  10.36753			  0.57995			 0.53097
	1.50			  10.57790			  0.53656			 0.42425
	1.75			  10.57681			  0.72965			 0.41695
	2.00			  10.39890			  0.36709			 0.30407
	2.25			  10.05033			  0.24374			 0.39230
	2.50			  10.28894			  0.29485			 0.53779
	2.75			  10.19767			  0.61516			 0.54156
	3.00			  10.11009			  0.48294			 0.20303
	3.25			  10.13110			  0.36891			 0.21930
	3.50			  10.14297			  0.21216			 0.18245
	3.75			  10.07625			  0.27917			 0.49053
	4.00			  9.79194			  0.07631			 0.32506
	4.25			  9.58239			  0.03088			 0.31011
	4.50			  9.62782			  0.22829			 0.15630
	4.75			  9.21485			  0.21216			 0.44273
	5.00			  9.14282			  0.26009			 0.23276
	5.25			  9.33641			  0.29871			 0.24024
	5.50			  9.70667			  0.18558			 0.12149
	5.75			  10.18048			  0.23647			 0.04737
	6.00			  10.02782			  0.28917			 -0.03016
	6.25			  9.95742			  -0.08361			 -0.04494
	6.50			  10.05824			  -0.24536			 0.23886
	6.75			  10.29317			  -0.61610			 0.11778
	7.00			  10.37626			  -0.64631			 0.15995
	7.25			  10.26098			  -0.61519			 0.60402
	7.50			  10.52960			  -0.28171			 0.27074
	7.75			  10.27407			  -0.36598			 0.11180
	8.00			  10.32100			  -0.43527			 0.29079
	8.25			  10.30709			  -0.37416			 0.30275
	8.50			  10.05688			  -0.40415			 -0.05349
	8.75			  10.04283			  -0.35326			 -0.13449
	9.00			  10.11868			  -0.57112			 -0.07904
	9.25			  10.07257			  -0.88666			 -0.25133
	9.50			  10.36030			  -1.00864			 0.11766
	9.75			  10.55812			  -0.76716			 0.03433
	10.00			  10.46821			  -0.32941			 0.17252
	10.25			  10.68295			  -0.16539			 0.11975
	10.50			  10.59318			  -0.06385			 0.14105
	10.75			  10.31705			  0.18376			 0.63417
	11.00			  10.44720			  0.24464			 0.57949
	11.25			  10.33369			  0.19512			 0.37011
	11.50			  10.13164			  0.09835			 0.22678
	11.75			  10.26302			  0.39867			 0.21469
	12.00			  10.25197			  0.42956			 0.25962
	12.25			  10.30272			  0.51316			 0.03325
	12.50			  10.24256			  0.38731			 -0.09950
	12.75			  10.41173			  0.26782			 0.05341
	13.00			  10.54011			  0.20194			 -0.15728
	13.25			  10.76289			  0.12788			 -0.06300
	13.50			  10.74461			  -0.06817			 -0.09656
	13.75			  10.73574			  -0.07044			 0.17946
	14.00			  10.70559			  0.10834			 -0.07778
	14.25			  10.42073			  -0.01910			 -0.02268
	14.50			  10.28458			  0.07109			 0.09283
	14.75			  10.73206			  -0.27534			 0.24101
	15.00			  10.70109			  -0.39393			 0.26500
	15.25			  10.97818			  0.04883			 0.39212
	15.50			  11.08363			  0.27100			 0.41187
	15.75			  10.85444			  0.19489			 0.37902
	16.00			  11.01283			  0.20534			 0.68346
	16.25			  11.03070			  0.16491			 0.48736
	16.50			  11.07108			  0.25600			 0.53546
	16.75			  11.27545			  0.07768			 0.31448
	17.00			  11.45949			  0.25282			 -0.03513
	17.25			  11.48023			  0.10971			 -0.00390
	17.50			  11.17027			  -0.00706			 -0.08741
	17.75			  10.98636			  0.44001			 -0.28303
	18.00			  10.68704			  0.69217			 -0.40782
	18.25			  10.79550			  0.55859			 -0.30271
	18.50			  10.99441			  0.21466			 -0.11714
	18.75			  11.17436			  0.09971			 -0.00414
	19.00			  10.96399			  -0.00638			 -0.34531
	19.25			  10.79045			  -0.03091			 -0.41883
	19.50			  11.08745			  -0.27194			 -0.46435
	19.75			  11.07886			  -0.06567			 -0.45233
	20.00			  11.34366			  0.38435			 -0.23422
	20.25			  10.98363			  0.46091			 -0.13401
	20.50			  11.04462			  -0.06885			 0.05592
	20.75			  10.98909			  0.27645			 -0.22088
	21.00			  11.06331			  0.58585			 -0.06193
	21.25			  11.05444			  0.77486			 -0.00552
	21.50			  10.86235			  0.57472			 -0.26138
	21.75			  10.44884			  0.64832			 -0.15956
	22.00			  10.54475			  0.61652			 -0.10356
	22.25			  10.85853			  0.22761			 -0.14568
	22.50			  10.50232			  0.34346			 -0.12223
	22.75			  10.53629			  0.47499			 -0.38347
	23.00			  10.67749			  0.79757			 -0.48302
	23.25			  10.78704			  1.09198			 -0.39819
	23.50			  10.97749			  1.35277			 -0.58023
	23.75			  11.35813			  1.32415			 -0.73415
	24.00			  11.15499			  0.77554			 -0.57598
	24.25			  10.83247			  0.69807			 -0.33998
	24.50			  10.65293			  0.92933			 -0.40130
	24.75			  10.37285			  0.67081			 -0.59662
	25.00			  10.54284			  0.79417			 -0.59740
	25.25			  10.51473			  0.33506			 -0.57849
	25.50			  10.37912			  0.15809			 -0.21920
	25.75			  10.76508			  -0.03704			 -0.43989
	26.00			  10.62728			  -0.02955			 -0.13569
	26.25			  10.66876			  0.25918			 -0.12031
	26.50			  10.63779			  0.16991			 0.05383
	26.75			  10.61200			  0.07268			 0.15439
	27.00			  10.80287			  0.17740			 -0.08640
	27.25			  10.84393			  0.46364			 0.03774
	27.50			  10.74830			  0.43297			 -0.03357
	27.75			  11.04134			  0.38844			 -0.17051
	28.00			  11.37231			  0.53565			 0.16444
	28.25			  11.38268			  1.07699			 0.03080
	28.50			  11.42416			  0.87436			 -0.06773
	28.75			  11.55076			  0.43887			 0.20428
	29.00			  11.49496			  0.40275			 0.29390
	29.25			  11.13016			  0.67740			 0.36975
	29.50			  11.15730			  0.10630			 -0.04530
	29.75			  11.41529			  0.04973			 0.14141
	30.00			  11.39796			  0.14742			 0.07327
	30.25			  11.53521			  0.08495			 0.31459
	30.50			  11.46618			  0.04769			 0.09666
	30.75			  11.40724			  0.26055			 -0.38389
	31.00			  11.43125			  0.18558			 -0.43516
	31.25			  11.35990			  0.28076			 -0.23182
	31.50			  11.21324			  0.25850			 -0.12516
	31.75			  11.38705			  0.21307			 0.20338
	32.00			  11.50151			  0.50634			 0.02039
	32.25			  11.41161			  0.44546			 0.06567
	32.50			  11.33316			  0.20103			 -0.06558
	32.75			  11.31924			  -0.06453			 -0.04159
	33.00			  11.10260			  -0.27648			 -0.10817
	33.25			  11.27477			  -0.10429			 -0.40926
	33.50			  11.41925			  -0.28034			 -0.18636
	33.75			  11.46290			  -0.52273			 -0.20113
	34.00			  11.43971			  -0.39824			 -0.19037
	34.25			  11.69906			  -0.06839			 -0.13252
	34.50			  11.80752			  -0.18720			 -0.04410
	34.75			  11.81025			  0.29235			 -0.13671
	35.00			  11.86032			  0.32302			 0.19920
	35.25			  11.94340			  0.47681			 0.48736
	35.50			  11.62634			  0.20262			 0.31543
	35.75			  11.62198			  0.20421			 0.24490
	36.00			  11.64244			  0.03292			 0.18813
	36.25			  11.53412			  0.16332			 0.39847
	36.50			  11.72416			  0.19171			 0.39577
	36.75			  11.54626			  0.41684			 0.34600
	37.00			  11.62020			  0.35232			 0.65768
	37.25			  11.86850			  0.42820			 0.41139
	37.50			  11.52279			  0.55632			 0.18939
	37.75			  11.41720			  0.83051			 0.33793
	38.00			  11.24407			  0.72102			 0.13423
	38.25			  11.36877			  1.23465			 -0.04607
	38.50			  11.19496			  1.31461			 -0.11343
	38.75			  11.04434			  1.45364			 -0.16979
	39.00			  10.81146			  1.33869			 0.05221
	39.25			  10.53028			  1.04042			 -0.37941
	39.50			  10.56657			  0.73306			 -0.18385
	39.75			  10.73302			  0.83937			 0.15008
	40.00			  10.86494			  0.80870			 0.02069
	40.25			  10.96167			  0.94887			 0.21146
	40.50			  10.62769			  0.92820			 0.33475
	40.75			  10.66821			  0.96886			 0.47641
	41.00			  10.41418			  1.07790			 0.36335
	41.25			  10.62797			  1.07563			 0.27015
	41.50			  10.90873			  0.97181			 0.10288
	41.75			  11.30001			  0.95818			 0.10857
	42.00			  11.23179			  0.59108			 0.02793
	42.25			  11.21733			  0.47749			 0.43227
	42.50			  11.48091			  0.63696			 0.24359
	42.75			  11.38787			  0.27645			 0.38704
	43.00			  11.19346			  0.38935			 0.52164
	43.25			  11.27927			  0.52906			 0.98544
	43.50			  11.46863			  0.54178			 0.69184
	43.75			  11.74804			  0.43660			 0.62053
	44.00			  11.94258			  0.59948			 0.70978
	44.25			  11.99306			  0.40094			 0.45703
	44.50			  12.13508			  0.17422			 0.38243
	44.75			  11.83003			  0.24873			 -0.16506
	45.00			  11.39796			  -0.16380			 0.00232
	45.25			  11.12511			  -0.10360			 0.13267
	45.50			  10.92292			  0.10766			 0.58661
	45.75			  11.04066			  0.31757			 0.92831
	46.00			  10.91897			  0.30961			 0.91641
	46.25			  10.90396			  0.56268			 0.64458
	46.50			  10.94407			  0.48794			 0.56076
	46.75			  10.74216			  0.37140			 0.66061
	47.00			  10.64229			  0.28417			 0.38315
	47.25			  10.82838			  0.52156			 0.02583
	47.50			  10.86221			  0.54973			 0.02505
	47.75			  10.93220			  0.56473			 0.54497
	48.00			  11.11433			  0.23465			 0.19746
	48.25			  11.22975			  0.20512			 0.23497
	48.50			  11.13575			  0.35482			 0.09212
	48.75			  11.06044			  0.16196			 0.07399
	49.00			  10.79209			  0.22056			 -0.06522
	49.25			  10.88650			  0.36936			 -0.10841
	49.50			  10.73656			  0.09358			 -0.20903
	49.75			  10.51173			  0.17627			 -0.39927
	50.00			  10.53956			  -0.02432			 -0.37001
	50.25			  10.71869			  0.03588			 0.23880
	50.50			  10.76112			  0.12038			 0.74436
	50.75			  10.76985			  0.26282			 0.65714
	51.00			  10.65389			  0.39185			 0.29713
	51.25			  10.66235			  0.23215			 0.38046
	51.50			  10.81323			  0.24919			 0.51009
	51.75			  10.63820			  0.38185			 -0.08472
	52.00			  10.60709			  0.63856			 0.00956
	52.25			  11.02620			  0.64060			 0.00352
	52.50			  10.94993			  0.64492			 -0.00276
	52.75			  10.66248			  0.69444			 0.15852
	53.00			  10.64106			  0.61175			 0.10169
	53.25			  10.69454			  0.82938			 0.08410
	53.50			  10.72742			  0.76781			 0.14075
	53.75			  10.50627			  0.96863			 0.07393
	54.00			  10.51118			  0.53360			 0.14697
	54.25			  10.50122			  0.61766			 -0.14460
	54.50			  10.51378			  0.70830			 -0.03477
	54.75			  10.27612			  0.81915			 0.09182
	55.00			  10.01636			  0.92206			 0.12233
	55.25			  9.75592			  0.79735			 0.15074
	55.50			  10.35388			  0.65673			 0.30909
	55.75			  10.03246			  0.63901			 0.03630
	56.00			  9.84610			  0.30961			 -0.06235
	56.25			  9.76724			  0.30802			 0.14536
	56.50			  9.85360			  0.85596			 0.15152
	56.75			  10.09781			  0.50407			 0.13184
	57.00			  10.32755			  0.80189			 -0.03070
	57.25			  10.10900			  0.52792			 -0.06976
	57.50			  10.44638			  0.44455			 0.26512
	57.75			  10.31814			  0.65605			 0.27960
	58.00			  10.40245			  0.60198			 0.54007
	58.25			  10.26302			  0.66854			 0.71929
	58.50			  10.31377			  0.11402			 0.48545
	58.75			  10.12100			  0.15332			 0.43322
	59.00			  10.41173			  0.17490			 0.53480
	59.25			  10.36521			  0.28304			 0.05772
	59.50			  10.25634			  0.09948			 -0.02663
	59.75			  10.10381			  0.42729			 0.10875
	60.00			  10.35702			  0.00112			 0.40014
	60.25			  10.26439			  0.12924			 0.51135
	60.50			  10.24624			  0.13947			 0.37669
	60.75			  10.30750			  0.10039			 0.67407
	61.00			  10.12714			  0.36300			 0.69668
	61.25			  10.00367			  0.56495			 0.47318
	61.50			  9.99030			  0.63560			 0.15732
	61.75			  9.91404			  0.29053			 0.15092
	62.00			  9.75974			  -0.09384			 0.40146
	62.25			  9.97598			  0.28690			 0.23120
	62.50			  10.22687			  0.41457			 -0.39927
	62.75			  10.40818			  0.36822			 -0.23535
	63.00			  10.37448			  0.07995			 -0.22447
	63.25			  10.44515			  -0.13450			 -0.26706
	63.50			  10.62237			  -0.18425			 -0.13054
	63.75			  10.59222			  -0.03023			 -0.35243
	64.00			  10.69904			  0.21420			 -0.31426
	64.25			  10.80246			  0.32552			 -0.22141
	64.50			  10.66958			  0.33006			 -0.08293
	64.75			  10.49986			  -0.02614			 0.02942
	65.00			  10.48567			  -0.13723			 -0.00881
	65.25			  11.10355			  -0.14131			 0.09373
	65.50			  10.90191			  0.01907			 -0.04787
	65.75			  10.99264			  -0.14063			 -0.03118
	66.00			  10.94611			  -0.34895			 0.01877
	66.25			  10.78227			  -0.22423			 0.07961
	66.50			  10.65716			  -0.34531			 0.09415
	66.75			  10.76739			  -0.16312			 0.03965
	67.00			  10.86521			  -0.38075			 -0.19778
	67.25			  10.74120			  -0.64313			 -0.06145
	67.50			  10.82824			  -0.42573			 0.01841
	67.75			  10.53629			  -0.36508			 -0.04332
	68.00			  10.68718			  0.00816			 -0.43325
	68.25			  10.54434			  -0.18130			 -0.19874
	68.50			  10.44311			  -0.30374			 -0.32610
	68.75			  10.73697			  -0.09202			 0.07351
	69.00			  10.98227			  -0.13859			 -0.02783
	69.25			  11.25567			  -0.26558			 -0.06970
	69.50			  11.55172			  -0.15744			 -0.03979
	69.75			  11.87437			  -0.22219			 -0.20413
	70.00			  11.72798			  -0.36508			 -0.38078
	70.25			  11.92771			  -0.43663			 -0.37199
	70.50			  11.72525			  -0.55090			 -0.48386
	70.75			  11.58146			  -0.47775			 -0.28459
	71.00			  11.51993			  -0.46026			 -0.27167
	71.25			  11.47354			  -0.89960			 -0.12510
	71.50			  10.99127			  -0.37621			 -0.37749
	71.75			  11.05103			  -0.44890			 -0.15549
	72.00			  11.17941			  -0.35485			 -0.25085
	72.25			  10.94721			  0.01679			 -0.04560
	72.50			  10.59536			  0.16241			 0.07507
	72.75			  10.61855			  -0.32010			 0.20799
	73.00			  10.42810			  -0.31237			 0.36933
	73.25			  10.20081			  -0.46367			 0.12209
	73.50			  10.03874			  -0.54840			 0.26883
	73.75			  10.46534			  -0.14881			 0.48916
	74.00			  10.58690			  0.14651			 0.32464
	74.25			  10.23710			  -0.19447			 0.40594
	74.50			  10.52987			  -0.07544			 0.38955
	74.75			  10.32387			  -0.05681			 0.52696
	75.00			  10.57053			  -0.08952			 0.20392
	75.25			  10.89345			  -0.03409			 0.61125
	75.50			  10.71419			  -0.03773			 0.82332
	75.75			  10.69427			  -0.00751			 0.75214
	76.00			  10.77463			  -0.02500			 0.53995
	76.25			  10.58895			  0.54405			 0.67461
	76.50			  10.49399			  0.58403			 0.68113
	76.75			  10.49795			  0.56632			 1.00345
	77.00			  10.20954			  0.95364			 0.88273
	77.25			  9.99290			  1.28848			 0.65116
	77.50			  9.89822			  1.14446			 0.59905
	77.75			  10.01636			  0.71897			 0.81214
	78.00			  10.09153			  0.36209			 0.97258
	78.25			  10.04583			  0.78871			 0.41964
	78.50			  9.82523			  0.79507			 0.49699
	78.75			  10.17243			  0.67786			 0.33206
	79.00			  10.44079			  0.73397			 0.55885
	79.25			  10.49700			  0.52474			 0.77367
	79.50			  10.41023			  0.39844			 0.53325
	79.75			  10.47285			  0.68422			 0.34337
	80.00			  10.27626			  0.68285			 0.59809
	80.25			  10.23219			  0.52406			 0.49071
	80.50			  10.08553			  0.59971			 0.24735
	80.75			  10.20927			  0.40480			 0.04396
	81.00			  10.41814			  0.21012			 0.31322
	81.25			  10.37462			  0.06382			 0.44291
	81.50			  10.45102			  -0.23559			 0.37711
	81.75			  10.80137			  -0.08929			 0.21254
	82.00			  10.83465			  0.18149			 0.38076
	82.25			  10.74393			  0.20921			 0.08721
	82.50			  10.82319			  0.45114			 0.16253
	82.75			  11.00464			  0.38912			 0.16073
	83.00			  11.01938			  0.52247			 0.06316
	83.25			  10.96126			  0.36913			 0.09732
	83.50			  10.77299			  -0.04136			 0.48784
	83.75			  10.84871			  0.12674			 0.28690
	84.00			  10.75921			  0.57790			 0.42204
	84.25			  10.84107			  0.85119			 0.48958
	84.50			  10.77544			  0.62538			 0.00980
	84.75			  10.95498			  0.65991			 0.12316
	85.00			  10.93315			  0.39480			 0.08314
	85.25			  11.04830			  0.21966			 -0.05738
	85.50			  10.82388			  0.16627			 -0.10434
	85.75			  10.98650			  0.19126			 0.21158
	86.00			  10.68458			  0.00385			 -0.03399
	86.25			  10.86617			  0.29099			 -0.24403
	86.50			  10.88158			  0.29576			 -0.25210
	86.75			  10.86276			  0.33528			 -0.13760
	87.00			  10.86126			  0.34960			 -0.14682
	87.25			  10.81119			  0.51180			 -0.00922
	87.50			  10.78827			  0.81915			 0.23204
	87.75			  10.69700			  0.97204			 -0.12061
	88.00			  10.74952			  1.10357			 0.16097
	88.25			  10.63479			  1.28621			 -0.10033
	88.50			  10.96631			  0.85845			 -0.05983
	88.75			  10.98527			  0.59971			 0.26237
	89.00			  11.22893			  0.44228			 0.26668
	89.25			  10.94980			  0.68694			 0.20811
	89.50			  10.71719			  0.95205			 0.18328
	89.75			  10.71310			  0.34823			 0.17766
	90.00			  10.59400			  0.29530			 0.17407
	90.25			  10.74816			  0.24305			 0.02637
	90.50			  10.78336			  0.21193			 0.28032
	90.75			  10.64420			  -0.06385			 0.45937
	91.00			  10.62428			  -0.14745			 0.48515
	91.25			  10.91951			  -0.00683			 0.02248
	91.50			  11.07490			  -0.35849			 0.41246
	91.75			  10.96849			  -0.22605			 0.42126
	92.00			  11.08500			  -0.75285			 0.14416
	92.25			  11.19769			  -0.49797			 -0.25049
	92.50			  10.72824			  -0.53659			 -0.29679
	92.75			  10.54816			  -0.71105			 0.06645
	93.00			  10.36630			  -0.94208			 0.13309
	93.25			  10.50041			  -1.18629			 0.23677
	93.50			  10.53369			  -1.18697			 0.21798
	93.75			  10.43642			  -0.69970			 0.10797
	94.00			  10.41009			  -0.85462			 0.24311
	94.25			  10.43369			  -0.84077			 0.28618
	94.50			  10.38976			  -0.82668			 0.17431
	94.75			  10.59481			  -0.52568			 0.52182
	95.00			  10.53069			  -0.07930			 0.61568
	95.25			  10.81828			  0.04610			 0.39063
	95.50			  10.87012			  -0.22446			 -0.20712
	95.75			  10.92497			  -0.53295			 -0.34549
	96.00			  10.87285			  -0.36508			 -0.24116
	96.25			  10.93957			  -0.40847			 -0.12678
	96.50			  11.03152			  -0.44913			 -0.03327
	96.75			  11.15499			  -0.33236			 -0.16733
	97.00			  11.34189			  -0.22628			 -0.06175
	97.25			  11.31351			  0.12266			 0.27888
	97.50			  11.29660			  0.29939			 0.20554
	97.75			  11.19619			  0.53292			 0.12741
	98.00			  11.38255			  0.69671			 0.22402
	98.25			  11.23316			  0.59607			 0.39284
	98.50			  11.09987			  0.19717			 0.22684
	98.75			  11.18445			  -0.07566			 0.37436
	99.00			  11.17859			  -0.35781			 0.62693
	99.25			  11.12497			  -0.47525			 0.46798
	99.50			  11.13589			  -0.42505			 0.41043
	99.75			  11.00451			  -0.32487			 0.16522
	100.00			  10.84202			  -0.46071			 0.08230
	100.25			  11.07981			  -0.32078			 0.44399
	100.50			  11.36113			  -0.63427			 0.21140
	100.75			  11.16972			  -0.58747			 0.21625
	101.00			  10.92060			  -0.40392			 0.17012
	101.25			  11.04680			  -0.30556			 0.42222
	101.50			  11.10519			  -0.13359			 0.75076
	101.75			  10.91037			  -0.51024			 0.71810
	102.00			  11.15403			  -0.54658			 0.85826
	102.25			  11.20192			  -0.56885			 0.77977
	102.50			  11.24762			  -0.47412			 0.57063
	102.75			  11.14898			  -0.48593			 0.29360
	103.00			  11.03206			  -0.32101			 0.46702
	103.25			  11.16617			  -0.56021			 0.49801
	103.50			  11.23070			  -0.64540			 0.22707
	103.75			  11.03684			  -0.44504			 0.46313
	104.00			  11.08595			  -0.13018			 0.46343
	104.25			  11.07081			  -0.31033			 0.54820
	104.50			  11.00601			  -0.44822			 0.38459
	104.75			  10.60846			  -0.61882			 0.41791
	105.00			  10.65743			  -0.26376			 0.34786
	105.25			  10.52278			  -0.15585			 0.10976
	105.50			  10.56835			  -0.25240			 0.04862
	105.75			  10.28963			  -0.03727			 0.08894
	106.00			  9.93696			  -0.18402			 0.12364
	106.25			  10.23546			  -0.22991			 0.10318
	106.50			  10.08526			  -0.22219			 0.39470
	106.75			  10.04351			  0.28281			 0.19740
	107.00			  10.08076			  0.02952			 -0.17164
	107.25			  10.10900			  0.61220			 0.24418
	107.50			  10.25293			  0.81257			 0.38860
	107.75			  10.60777			  0.97567			 0.31968
	108.00			  10.49086			  1.02656			 0.23533
	108.25			  10.34201			  0.99589			 0.25280
	108.50			  10.04119			  0.91025			 0.25280
	108.75			  10.30545			  0.61925			 0.04139
	109.00			  10.32414			  0.17150			 -0.04129
	109.25			  10.35811			  0.44024			 0.25764
	109.50			  10.28226			  0.55746			 0.23354
	109.75			  10.19767			  0.32415			 -0.39119
	110.00			  10.04051			  0.27713			 -0.38024
	110.25			  10.13805			  0.50271			 -0.79134
	110.50			  10.01663			  0.37209			 -0.57885
	110.75			  9.95729			  0.43751			 -0.23380
	111.00			  10.01363			  0.57086			 -0.31910
	111.25			  10.01677			  0.60789			 -0.40447
	111.50			  10.05511			  0.33074			 -0.48392
	111.75			  9.99453			  0.06064			 -0.25408
	112.00			  10.13874			  0.29258			 -0.11421
	112.25			  9.87379			  0.76032			 0.06496
	112.50			  10.02932			  1.01770			 -0.02956
	112.75			  10.07312			  1.18490			 0.30478
	113.00			  9.94910			  1.01725			 0.29856
	113.25			  10.22796			  0.48931			 0.33057
	113.50			  10.21364			  0.12743			 0.39356
	113.75			  9.94446			  -0.00047			 0.25800
	114.00			  9.78021			  0.16355			 -0.19240
	114.25			  9.78389			  0.84755			 -0.25390
	114.50			  9.79276			  0.76509			 -0.41362
	114.75			  9.76397			  0.59085			 -0.36056
	115.00			  9.85197			  0.28667			 -0.28746
	115.25			  9.69876			  0.27736			 -0.55941
	115.50			  9.47856			  0.20126			 -0.61654
	115.75			  9.59739			  -0.11655			 -0.59249
	116.00			  9.64855			  0.11584			 -0.86169
	116.25			  9.73669			  0.17377			 -0.73493
	116.50			  10.18021			  0.25850			 -0.85787
	116.75			  9.88935			  0.47886			 -0.66930
	117.00			  9.79931			  0.80303			 -0.56222
	117.25			  10.24229			  0.67104			 -0.34949
	117.50			  9.80463			  0.57722			 -0.44324
	117.75			  10.06152			  0.52565			 -0.38401
	118.00			  10.35961			  0.35891			 -0.08669
	118.25			  10.20545			  -0.05272			 0.04868
	118.50			  10.15975			  0.15332			 0.04773
	118.75			  10.10559			  0.33210			 0.11024
	119.00			  9.90326			  0.10993			 0.26518
	119.25			  10.29590			  -0.31919			 0.05491
	119.50			  10.17421			  -0.47639			 0.07052
	119.75			  10.33901			  -0.48116			 -0.01826
	120.00			  10.52292			  -0.35667			 -0.10105
	120.25			  10.31637			  -0.29102			 -0.33556
	120.50			  10.51337			  -0.28375			 -0.06450
	120.75			  10.44324			  -0.09452			 -0.39077
	121.00			  10.47926			  0.19898			 -0.41578
	121.25			  10.31746			  0.16037			 -0.15932
	121.50			  10.04460			  0.14424			 -0.18732
	121.75			  10.10368			  -0.22787			 0.00459
	122.00			  10.16179			  -0.27671			 -0.20933
	122.25			  10.25525			  0.12765			 -0.14424
	122.50			  10.28512			  -0.25831			 -0.09926
	122.75			  10.31896			  -0.09316			 -0.11678
	123.00			  10.28499			  -0.19856			 -0.33490
	123.25			  10.17271			  -0.53523			 -0.36941
	123.50			  10.54884			  -0.56816			 -0.24253
	123.75			  10.46671			  -0.52750			 -0.06127
	124.00			  10.40054			  -0.48411			 0.05838
	124.25			  10.24392			  -0.18834			 0.14685
	124.50			  10.41691			  -0.08861			 -0.07108
	124.75			  10.30900			  -0.34054			 -0.16177
	125.00			  10.35688			  -0.46912			 -0.16997
	125.25			  10.11909			  -0.34736			 -0.33944
	125.50			  10.25606			  -0.21446			 0.05144
	125.75			  10.42073			  -0.27807			 -0.05260
	126.00			  10.37639			  -0.59111			 -0.11266
	126.25			  10.36562			  -0.77284			 -0.02956
	126.50			  10.82442			  -0.42573			 -0.33681
	126.75			  10.76794			  -0.35485			 -0.25581
	127.00			  10.94502			  -0.17857			 -0.42870
	127.25			  10.88254			  0.01293			 -0.80026
	127.50			  10.81719			  -0.27148			 -0.72673
	127.75			  11.04175			  -0.38916			 -0.75748
	128.00			  11.13261			  -0.43822			 -0.81174
	128.25			  10.85498			  -0.47094			 -0.47129
	128.50			  10.84543			  -0.81532			 -0.36218
	128.75			  10.82115			  -0.66948			 -0.50569
	129.00			  10.61692			  0.14083			 -0.41416
	129.25			  10.70191			  -0.00024			 0.04563
	129.50			  10.70505			  0.11993			 -0.24229
	129.75			  10.66221			  0.32120			 -0.69832
	130.00			  10.57926			  -0.13427			 -1.00078
	130.25			  10.64147			  -0.21469			 -0.68695
	130.50			  10.50586			  -0.51614			 -0.94754
	130.75			  10.30572			  -0.68834			 -0.77358
	131.00			  10.45620			  -0.19743			 -0.68235
	131.25			  10.53424			  -0.52773			 -0.48326
	131.50			  10.52346			  -0.61065			 -0.55821
	131.75			  10.49672			  -0.41074			 -0.01646
	132.00			  10.41446			  -0.30578			 0.02757
	132.25			  10.41064			  -0.56498			 -0.46998
	132.50			  10.40136			  -0.77171			 -0.89836
	132.75			  10.24229			  -0.54272			 -0.51054
	133.00			  10.23028			  -0.57793			 -0.47416
	133.25			  10.46521			  -0.74672			 -0.45029
	133.50			  10.50927			  -0.85508			 -0.47925
	133.75			  10.51746			  -0.96662			 -0.37576
	134.00			  10.66098			  -0.72423			 -0.52615
	134.25			  10.67244			  -0.40438			 -0.15172
	134.50			  10.83343			  -0.59906			 -0.12582
	134.75			  10.84066			  -0.69265			 -0.39986
	135.00			  10.82524			  -0.57907			 -0.64149
	135.25			  10.93807			  -0.55885			 -0.54589
	135.50			  10.78881			  -0.69243			 -0.48380
	135.75			  10.70014			  -0.36985			 -0.13461
	136.00			  10.71705			  -0.75081			 -0.27555
	136.25			  10.93043			  -1.47048			 -0.16464
	136.50			  10.78240			  -1.41028			 -0.09824
	136.75			  10.61419			  -1.14449			 -0.22841
	137.00			  10.53342			  -1.02818			 0.01195
	137.25			  10.73793			  -1.04386			 -0.22488
	137.50			  10.80901			  -1.20696			 -0.31833
	137.75			  10.73015			  -1.23786			 -0.15962
	138.00			  10.63847			  -1.28624			 -0.33203
	138.25			  10.37885			  -1.30669			 0.06113
	138.50			  10.55716			  -1.28988			 -0.00857
	138.75			  10.48513			  -1.00728			 0.04587
	139.00			  10.65321			  -0.88779			 -0.13443
	139.25			  10.97299			  -1.13722			 0.01076
	139.50			  10.77981			  -1.13927			 0.20404
	139.75			  10.50000			  -1.03954			 0.44943
	140.00			  10.57367			  -0.98229			 0.46433
	140.25			  10.52155			  -0.91164			 0.21906
	140.50			  10.55157			  -0.87143			 0.39589
	140.75			  10.31500			  -0.87439			 0.11826
	141.00			  10.05838			  -0.82464			 0.28582
	141.25			  10.19126			  -0.66766			 0.47725
	141.50			  10.62647			  -0.54636			 0.03110
	141.75			  10.60204			  -0.82736			 -0.11984
	142.00			  10.76071			  -0.69288			 -0.14197
	142.25			  10.41759			  -0.99206			 -0.11972
	142.50			  10.59768			  -0.51773			 -0.15017
	142.75			  10.66767			  -0.50138			 -0.17182
	143.00			  10.75525			  -0.69402			 -0.22925
	143.25			  10.91733			  -0.40256			 -0.12851
	143.50			  10.73288			  -0.46639			 -0.19695
	143.75			  11.04530			  -0.39756			 -0.16596
	144.00			  10.83329			  -0.27693			 -0.08119
	144.25			  10.83070			  -0.11087			 0.02930
	144.50			  11.04325			  -0.42437			 -0.04201
	144.75			  11.35349			  -0.15563			 -0.10829
	145.00			  11.38991			  -0.20038			 -0.18361
	145.25			  11.08664			  -0.09406			 -0.04584
	145.50			  11.12102			  0.03588			 -0.02544
	145.75			  11.07804			  -0.18016			 -0.35368
	146.00			  10.98404			  -0.34486			 -0.29165
	146.25			  10.87163			  0.13424			 -0.45759
	146.50			  10.75853			  -0.08452			 -0.63724
	146.75			  10.84434			  -0.27012			 -1.02543
	147.00			  10.93875			  0.02520			 -0.90022
	147.25			  10.59113			  0.13470			 -0.88299
	147.50			  11.00232			  0.00612			 -0.47704
	147.75			  10.91433			  -0.15449			 -0.12809
	148.00			  10.90150			  0.19012			 -0.08029
	148.25			  11.04352			  0.08699			 -0.21208
	148.50			  10.89768			  -0.05113			 -0.02191
	148.75			  10.63738			  0.05042			 -0.30558
	149.00			  10.70846			  0.41934			 -0.37073
	149.25			  10.91842			  0.24215			 -0.42044
	149.50			  11.02593			  -0.22219			 -0.56180
	149.75			  10.84325			  -0.36508			 -0.49097
	150.00			  10.79113			  -0.30510			 -0.82981
	150.25			  11.30547			  -0.24831			 -0.81270
	150.50			  11.16631			  -0.51455			 -0.67188
	150.75			  10.91760			  -0.47843			 -0.62450
	151.00			  10.74679			  -0.49570			 -0.12827
	151.25			  10.77845			  -0.49797			 -0.43085
	151.50			  10.51214			  -0.16539			 -0.28064
	151.75			  10.27066			  -0.03682			 -0.14837
	152.00			  10.21186			  0.40048			 -0.17852
	152.25			  10.15634			  0.24533			 -0.06845
	152.50			  10.12619			  0.20534			 -0.36158
	152.75			  10.35470			  -0.15585			 -0.24977
	153.00			  10.42824			  0.00930			 -0.04255
	153.25			  10.53902			  -0.15767			 -0.19031
	153.50			  10.66207			  0.40162			 -0.05272
	153.75			  10.73793			  0.83915			 0.48180
	154.00			  10.79359			  1.01679			 0.32788
	154.25			  10.65634			  0.87299			 -0.04931
	154.50			  10.43465			  0.72670			 0.38698
	154.75			  10.39481			  0.71329			 0.54910
	155.00			  10.29699			  0.96772			 0.55000
	155.25			  10.39809			  0.66809			 0.51464
	155.50			  10.44393			  0.48226			 0.34684
	155.75			  10.40968			  0.68058			 0.08859
	156.00			  10.72810			  0.64196			 0.35563
	156.25			  10.59986			  0.86345			 0.04492
	156.50			  10.50300			  0.95455			 0.15230
	156.75			  10.57872			  0.85573			 0.10139
	157.00			  10.47571			  0.68104			 0.12119
	157.25			  10.78731			  0.54837			 -0.10356
	157.50			  10.51405			  0.26577			 -0.27292
	157.75			  10.99155			  0.03610			 -0.20682
	158.00			  10.97476			  0.49021			 -0.36433
	158.25			  10.71651			  0.65014			 -0.35470
	158.50			  10.86890			  0.62402			 -0.26532
	158.75			  11.30997			  0.47090			 0.21649
	159.00			  11.37259			  0.79530			 0.48766
	159.25			  11.20465			  0.96000			 0.30203
	159.50			  11.36740			  0.78576			 0.21493
	159.75			  11.11447			  0.98499			 0.16300
	160.00			  11.40710			  0.64037			 0.12017
	160.25			  11.43398			  0.55178			 0.26853
	160.50			  11.40478			  0.49816			 0.47707
	160.75			  11.50779			  0.47499			 0.40887
	161.00			  11.35908			  0.44046			 0.13561
	161.25			  10.87749			  0.42115			 -0.15417
	161.50			  11.07927			  -0.04795			 -0.20006
	161.75			  10.94393			  -0.40120			 0.28229
	162.00			  10.97954			  -0.04204			 -0.13090
	162.25			  11.07790			  0.13447			 -0.54840
	162.50			  11.44135			  -0.20719			 -0.44874
	162.75			  11.95909			  -0.53045			 -0.18103
	163.00			  11.72362			  -0.63836			 -0.34728
	163.25			  11.57586			  -0.25126			 -0.24756
	163.50			  11.64367			  -0.22151			 -0.36517
	163.75			  11.54026			  -0.29352			 -0.59776
	164.00			  11.50956			  -0.42232			 -0.34991
	164.25			  11.71898			  -0.60269			 -0.34902
	164.50			  11.72798			  -0.48934			 -0.41985
	164.75			  11.71379			  -0.08793			 -0.53608
	165.00			  11.91093			  0.05496			 -0.63102
	165.25			  11.77996			  -0.04386			 -0.52962