--------------TurbSim v2.00.* User Time Series Input File-----------------------
     Time series input from low-res turbsim run
--------------------------------------------------------------------------------
          3 nComp - Number of velocity components in the file
          1 nPoints - Number of time series points contained in this file (-)
          1 RefPtID - Index of the reference point (1-nPoints)
     Pointyi Pointzi ! nPoints listed in order of increasing height
       (m)     (m)
       -2.06170   94.00000
--------Time Series-------------------------------------------------------------
Elapsed Time         Point01u             Point01v           Point01w
         (s)            (m/s)                (m/s)              (m/s)
	0.00			  9.73609			  -0.11088			 0.02106
	0.25			  9.74474			  -0.11557			 -0.09870
	0.50			  9.66947			  -0.22236			 0.06453
	0.75			  9.62366			  -0.20729			 0.00300
	1.00			  9.71073			  -0.26353			 -0.04235
	1.25			  9.83276			  -0.30002			 0.01546
	1.50			  9.86479			  -0.23859			 0.12807
	1.75			  10.01679			  -0.32630			 0.05318
	2.00			  10.00001			  -0.28546			 -0.02052
	2.25			  10.00675			  -0.30454			 -0.05421
	2.50			  10.06942			  -0.29316			 -0.11120
	2.75			  10.04824			  -0.34923			 -0.12057
	3.00			  9.98044			  -0.27525			 -0.15397
	3.25			  9.90517			  -0.34254			 -0.10972
	3.50			  9.92804			  -0.23759			 -0.04157
	3.75			  10.01885			  -0.23140			 0.05209
	4.00			  10.02559			  -0.34170			 -0.02036
	4.25			  10.06480			  -0.35442			 -0.01101
	4.50			  10.07565			  -0.27960			 0.01525
	4.75			  10.01767			  -0.24964			 0.06546
	5.00			  10.01445			  -0.16444			 -0.01086
	5.25			  9.95508			  -0.24161			 0.01243
	5.50			  9.89579			  -0.17365			 0.07936
	5.75			  9.89894			  -0.14854			 0.11804
	6.00			  9.79553			  -0.18386			 0.11406
	6.25			  9.78241			  -0.12946			 0.07954
	6.50			  9.85255			  -0.14486			 0.01661
	6.75			  9.93471			  -0.08092			 0.00520
	7.00			  9.81180			  -0.08092			 -0.04289
	7.25			  9.79831			  -0.07757			 0.03053
	7.50			  9.84302			  0.02922			 0.06138
	7.75			  9.97839			  -0.01982			 0.03920
	8.00			  10.08979			  -0.09632			 -0.01964
	8.25			  10.10115			  -0.01480			 -0.03339
	8.50			  10.04201			  -0.05799			 -0.09874
	8.75			  10.09456			  -0.19424			 -0.14131
	9.00			  10.04083			  -0.23022			 -0.12584
	9.25			  10.01833			  -0.06552			 -0.11023
	9.50			  10.00624			  0.02303			 -0.06262
	9.75			  9.93486			  -0.06468			 -0.04023
	10.00			  9.89975			  -0.24110			 0.00514
	10.25			  9.94277			  -0.32295			 -0.04723
	10.50			  10.02837			  -0.25751			 0.03951
	10.75			  10.01877			  -0.45251			 0.02973
	11.00			  9.92210			  -0.47544			 0.03282
	11.25			  9.89154			  -0.54105			 -0.00250
	11.50			  9.97707			  -0.61839			 0.01436
	11.75			  9.99085			  -0.40598			 -0.14981
	12.00			  9.99737			  -0.33969			 -0.14631
	12.25			  10.06634			  -0.36714			 -0.10343
	12.50			  10.04640			  -0.32329			 -0.14135
	12.75			  10.01467			  -0.22738			 -0.05586
	13.00			  9.94834			  -0.25249			 0.01373
	13.25			  9.89433			  -0.23340			 0.02444
	13.50			  9.77603			  -0.14252			 -0.04946
	13.75			  9.87725			  -0.08276			 -0.06484
	14.00			  9.88502			  -0.11038			 -0.03208
	14.25			  9.82814			  -0.09749			 0.00339
	14.50			  9.77479			  -0.17164			 -0.04783
	14.75			  9.91888			  -0.13130			 -0.07744
	15.00			  9.94790			  -0.09531			 -0.08517
	15.25			  9.89579			  -0.09866			 -0.04334
	15.50			  9.88876			  -0.10385			 0.09116
	15.75			  9.87754			  -0.05966			 -0.01803
	16.00			  9.86413			  0.05316			 0.12654
	16.25			  9.87725			  -0.05029			 0.17648
	16.50			  9.82125			  -0.13582			 0.09312
	16.75			  9.82690			  -0.09464			 0.09048
	17.00			  9.86684			  -0.28462			 0.11000
	17.25			  9.82397			  -0.20930			 0.09866
	17.50			  9.83049			  -0.16243			 0.14977
	17.75			  9.93969			  -0.19775			 0.18248
	18.00			  9.86897			  -0.21131			 0.22786
	18.25			  9.88157			  -0.20043			 0.12576
	18.50			  9.85702			  -0.07372			 0.07695
	18.75			  9.69791			  -0.11255			 0.05576
	19.00			  9.69593			  -0.17181			 0.05782
	19.25			  9.74987			  -0.06200			 0.07019
	19.50			  9.80088			  -0.09464			 -0.03059
	19.75			  9.85885			  -0.16227			 0.01202
	20.00			  9.86838			  -0.24813			 -0.05195
	20.25			  9.91617			  -0.27123			 -0.01599
	20.50			  9.92313			  -0.32463			 -0.08033
	20.75			  9.99166			  -0.24579			 -0.11449
	21.00			  9.96674			  -0.18972			 -0.17306
	21.25			  9.90393			  -0.16026			 -0.12102
	21.50			  9.98565			  -0.01731			 -0.15408
	21.75			  10.00265			  0.09266			 -0.02328
	22.00			  10.02852			  0.08881			 -0.05158
	22.25			  10.00543			  -0.00275			 -0.14817
	22.50			  9.94592			  0.10069			 -0.08861
	22.75			  9.91998			  0.07190			 -0.06328
	23.00			  9.97502			  -0.00308			 -0.09087
	23.25			  9.99547			  0.06738			 -0.16132
	23.50			  9.92445			  -0.01078			 -0.00374
	23.75			  9.95061			  0.08446			 -0.05975
	24.00			  9.94416			  0.04880			 -0.00213
	24.25			  10.03966			  0.15141			 0.06142
	24.50			  9.99730			  0.10722			 0.12776
	24.75			  9.99393			  -0.03690			 0.20743
	25.00			  10.02845			  -0.06318			 0.15193
	25.25			  10.06165			  0.03458			 0.15500
	25.50			  10.10614			  0.07056			 0.11482
	25.75			  10.17371			  0.06186			 0.18408
	26.00			  10.13450			  0.02319			 0.13480
	26.25			  10.14733			  0.03575			 0.18025
	26.50			  10.11031			  0.05985			 0.17350
	26.75			  10.19474			  -0.00844			 0.20021
	27.00			  10.14886			  -0.09280			 0.20882
	27.25			  10.05205			  -0.16913			 0.20861
	27.50			  10.08312			  -0.04577			 0.21042
	27.75			  10.04157			  -0.03824			 0.29387
	28.00			  10.11244			  -0.02033			 0.28186
	28.25			  10.13523			  -0.02987			 0.22043
	28.50			  10.19694			  -0.03790			 0.19106
	28.75			  10.12952			  0.00512			 0.16044
	29.00			  10.07697			  0.07090			 0.11400
	29.25			  10.01753			  -0.02418			 0.11379
	29.50			  10.14821			  -0.14385			 0.17656
	29.75			  10.11823			  -0.20696			 0.17094
	30.00			  10.10746			  -0.09414			 0.17922
	30.25			  10.13641			  -0.11958			 0.03770
	30.50			  10.15443			  -0.21834			 0.03691
	30.75			  10.01416			  -0.15959			 0.02649
	31.00			  9.94299			  -0.23374			 0.06218
	31.25			  9.93808			  -0.19708			 0.09192
	31.50			  9.95384			  -0.26303			 0.13847
	31.75			  9.94739			  -0.24228			 0.18532
	32.00			  9.96366			  -0.10904			 0.27076
	32.25			  9.94138			  -0.03924			 0.19261
	32.50			  9.96007			  -0.06016			 0.17455
	32.75			  9.83496			  0.03910			 0.08947
	33.00			  9.83855			  0.05885			 0.04892
	33.25			  9.81180			  0.01901			 0.03514
	33.50			  9.91859			  0.07107			 -0.01066
	33.75			  9.87710			  0.09032			 0.07483
	34.00			  9.79941			  0.09668			 0.04266
	34.25			  9.84046			  0.01516			 0.01095
	34.50			  9.86208			  -0.10351			 0.11548
	34.75			  9.87410			  -0.08812			 0.01163
	35.00			  9.74760			  -0.07021			 -0.01762
	35.25			  9.77603			  -0.11306			 0.01914
	35.50			  9.80191			  -0.21566			 0.06029
	35.75			  9.85240			  -0.11172			 0.10389
	36.00			  9.87974			  -0.13917			 -0.03757
	36.25			  9.92078			  -0.31860			 -0.07316
	36.50			  9.96996			  -0.26119			 0.07973
	36.75			  9.94424			  -0.26772			 0.10113
	37.00			  9.96952			  -0.42974			 0.03401
	37.25			  9.99034			  -0.41786			 0.10319
	37.50			  9.98491			  -0.41317			 0.15926
	37.75			  9.99034			  -0.45402			 0.01226
	38.00			  10.02273			  -0.44297			 -0.01992
	38.25			  10.03761			  -0.45803			 0.15992
	38.50			  10.11339			  -0.38187			 0.16952
	38.75			  10.23058			  -0.30873			 0.13853
	39.00			  10.17261			  -0.37367			 0.10383
	39.25			  10.12358			  -0.45368			 0.25750
	39.50			  9.93486			  -0.42255			 0.26977
	39.75			  10.02647			  -0.37869			 0.17595
	40.00			  10.01995			  -0.37535			 0.12788
	40.25			  10.00419			  -0.34036			 0.10916
	40.50			  9.97876			  -0.25014			 0.07510
	40.75			  9.94328			  -0.27073			 0.07044
	41.00			  9.98315			  -0.15858			 0.15496
	41.25			  9.85834			  -0.22353			 0.03261
	41.50			  9.82595			  -0.26102			 0.03368
	41.75			  9.88531			  -0.25048			 0.13006
	42.00			  9.84273			  -0.29199			 0.09446
	42.25			  9.94314			  -0.38171			 0.06175
	42.50			  9.96776			  -0.38254			 0.03838
	42.75			  9.99796			  -0.39978			 0.00872
	43.00			  10.13721			  -0.32814			 0.07814
	43.25			  10.11222			  -0.35107			 0.09598
	43.50			  10.20603			  -0.29299			 0.01533
	43.75			  10.12431			  -0.29266			 0.13154
	44.00			  10.20354			  -0.23692			 0.06295
	44.25			  10.26239			  -0.14854			 0.03895
	44.50			  10.29816			  -0.23190			 0.04705
	44.75			  10.25352			  -0.29584			 0.13519
	45.00			  10.32791			  -0.22621			 0.14608
	45.25			  10.31795			  -0.15440			 0.10232
	45.50			  10.20075			  -0.14402			 0.12877
	45.75			  10.19277			  -0.15473			 0.09934
	46.00			  10.30028			  -0.18905			 0.11204
	46.25			  10.26928			  -0.15088			 0.08109
	46.50			  10.20786			  -0.23759			 0.01686
	46.75			  10.06136			  -0.24512			 -0.01375
	47.00			  10.12651			  -0.16578			 -0.05207
	47.25			  10.16001			  -0.27073			 -0.15323
	47.50			  10.11654			  -0.23608			 -0.05730
	47.75			  10.10687			  -0.23491			 -0.11198
	48.00			  10.11222			  -0.21750			 -0.17018
	48.25			  10.16667			  -0.07891			 -0.16901
	48.50			  10.11867			  -0.07021			 -0.10799
	48.75			  10.04509			  -0.09833			 -0.13604
	49.00			  10.06524			  -0.12812			 -0.07551
	49.25			  10.11867			  -0.09816			 -0.06527
	49.50			  10.10606			  -0.09665			 -0.07952
	49.75			  10.07418			  -0.12226			 -0.15554
	50.00			  10.10203			  0.02286			 0.02697
	50.25			  10.03343			  -0.03957			 0.04204
	50.50			  9.97883			  -0.09900			 -0.03760
	50.75			  10.05938			  -0.07372			 -0.15589
	51.00			  10.10980			  -0.12243			 -0.16032
	51.25			  10.12292			  -0.17382			 -0.08663
	51.50			  10.09646			  -0.08795			 -0.00466
	51.75			  10.13435			  -0.09900			 -0.03683
	52.00			  10.10298			  -0.17398			 -0.01614
	52.25			  9.97590			  -0.19976			 -0.13707
	52.50			  10.07814			  -0.14837			 -0.07981
	52.75			  10.04574			  -0.10904			 0.04521
	53.00			  9.95135			  -0.04744			 -0.00475
	53.25			  10.03138			  -0.14051			 0.12679
	53.50			  9.95325			  -0.12209			 0.18550
	53.75			  9.93632			  -0.09213			 0.17358
	54.00			  9.93090			  -0.12862			 0.15397
	54.25			  9.96498			  -0.06636			 0.10488
	54.50			  10.10965			  -0.06937			 0.11933
	54.75			  10.16667			  -0.14185			 0.15869
	55.00			  10.05249			  -0.18988			 0.09075
	55.25			  10.09353			  -0.21181			 0.14365
	55.50			  10.02449			  -0.16143			 0.17323
	55.75			  9.94724			  -0.22319			 0.07026
	56.00			  9.87351			  -0.32831			 0.01791
	56.25			  9.86479			  -0.45820			 0.02268
	56.50			  9.97480			  -0.43443			 -0.00294
	56.75			  9.93837			  -0.42974			 0.01636
	57.00			  10.02127			  -0.38606			 0.02612
	57.25			  10.00148			  -0.29852			 0.09965
	57.50			  9.92042			  -0.44380			 0.09894
	57.75			  9.94116			  -0.46858			 -0.06012
	58.00			  9.90847			  -0.40916			 -0.02960
	58.25			  9.86069			  -0.41317			 -0.00460
	58.50			  9.86523			  -0.35091			 0.08558
	58.75			  9.85746			  -0.35275			 0.08045
	59.00			  9.95750			  -0.34572			 0.12007
	59.25			  9.94548			  -0.23123			 0.04355
	59.50			  9.89403			  -0.33768			 -0.02670
	59.75			  9.84419			  -0.39627			 -0.02505
	60.00			  9.78219			  -0.40079			 -0.06000
	60.25			  9.80513			  -0.40815			 -0.07598
	60.50			  9.75793			  -0.46372			 -0.10809
	60.75			  9.85643			  -0.38723			 -0.04874
	61.00			  9.88011			  -0.35057			 -0.00753
	61.25			  9.76013			  -0.25550			 -0.05640
	61.50			  9.63502			  -0.19691			 -0.01004
	61.75			  9.58980			  -0.23474			 0.01142
	62.00			  9.53938			  -0.15741			 -0.01418
	62.25			  9.51116			  -0.14720			 -0.07623
	62.50			  9.48947			  -0.13130			 -0.09400
	62.75			  9.53271			  0.02989			 -0.06993
	63.00			  9.45011			  0.03391			 -0.13080
	63.25			  9.45634			  -0.10167			 -0.11213
	63.50			  9.43721			  -0.16243			 -0.10241
	63.75			  9.46162			  -0.16026			 -0.09936
	64.00			  9.49987			  -0.05698			 -0.18878
	64.25			  9.41859			  -0.01781			 -0.11604
	64.50			  9.56613			  -0.10469			 -0.05786
	64.75			  9.56342			  -0.15038			 -0.08251
	65.00			  9.62286			  -0.13164			 -0.16946
	65.25			  9.59896			  -0.03522			 -0.19407
	65.50			  9.51842			  -0.05748			 -0.15282
	65.75			  9.62432			  0.02202			 -0.12022
	66.00			  9.69563			  -0.00710			 -0.12277
	66.25			  9.60453			  0.06537			 -0.11507
	66.50			  9.59244			  0.12664			 -0.18834
	66.75			  9.54663			  0.04947			 -0.14145
	67.00			  9.56246			  0.06504			 -0.07695
	67.25			  9.61589			  0.12697			 -0.11402
	67.50			  9.57309			  0.12212			 -0.11227
	67.75			  9.67240			  0.03424			 -0.05689
	68.00			  9.69798			  -0.00627			 -0.20424
	68.25			  9.67966			  0.09818			 -0.13243
	68.50			  9.62102			  0.11760			 -0.12411
	68.75			  9.70912			  0.06805			 -0.22978
	69.00			  9.67313			  0.06889			 -0.16271
	69.25			  9.70069			  0.09818			 -0.20696
	69.50			  9.79641			  0.11793			 -0.13089
	69.75			  9.87828			  0.28364			 -0.07324
	70.00			  9.93991			  0.24950			 -0.08268
	70.25			  10.07887			  0.19895			 -0.04486
	70.50			  10.02859			  0.24297			 0.05893
	70.75			  10.01540			  0.26088			 0.20912
	71.00			  9.97267			  0.22908			 0.21421
	71.25			  10.09067			  0.21585			 0.09596
	71.50			  10.01709			  0.22071			 0.12294
	71.75			  10.05732			  0.09550			 0.04456
	72.00			  9.96989			  0.13049			 0.14316
	72.25			  10.04303			  0.18338			 0.21166
	72.50			  10.07360			  0.20531			 0.07604
	72.75			  10.04259			  0.21117			 0.09561
	73.00			  10.05835			  0.10371			 0.03138
	73.25			  9.97641			  -0.04895			 -0.05399
	73.50			  10.01489			  0.07123			 -0.08811
	73.75			  10.03285			  0.04295			 0.05417
	74.00			  10.10804			  -0.09766			 0.09999
	74.25			  10.08210			  -0.07322			 0.06325
	74.50			  10.08598			  0.05500			 -0.03411
	74.75			  10.08825			  0.12764			 -0.05572
	75.00			  10.09969			  0.09383			 -0.05718
	75.25			  10.15759			  0.14756			 -0.00487
	75.50			  10.06121			  0.15108			 -0.01583
	75.75			  10.09895			  0.19895			 -0.03481
	76.00			  10.09976			  0.15041			 -0.03885
	76.25			  10.20215			  0.10438			 0.02411
	76.50			  10.23945			  0.01801			 0.01167
	76.75			  10.27133			  0.07241			 0.06507
	77.00			  10.24700			  0.03575			 0.19963
	77.25			  10.18404			  0.09483			 0.19304
	77.50			  10.29032			  -0.02468			 0.15020
	77.75			  10.24187			  -0.06552			 0.07806
	78.00			  10.41396			  -0.11640			 0.09180
	78.25			  10.36024			  -0.00091			 0.10644
	78.50			  10.33436			  -0.04928			 0.01706
	78.75			  10.30805			  -0.00744			 -0.04865
	79.00			  10.31040			  0.02018			 0.04058
	79.25			  10.29625			  0.04680			 0.01729
	79.50			  10.28922			  -0.05899			 -0.00160
	79.75			  10.21160			  -0.13080			 -0.15869
	80.00			  10.15400			  -0.12377			 -0.08393
	80.25			  10.22853			  -0.17515			 -0.14571
	80.50			  10.20757			  -0.20512			 -0.10251
	80.75			  10.23403			  -0.29283			 -0.13082
	81.00			  10.32300			  -0.33501			 -0.09619
	81.25			  10.35005			  -0.38338			 0.03444
	81.50			  10.49223			  -0.35710			 0.10864
	81.75			  10.56303			  -0.34388			 0.15922
	82.00			  10.47054			  -0.36430			 0.04622
	82.25			  10.55035			  -0.36296			 0.01465
	82.50			  10.51085			  -0.34371			 0.02837
	82.75			  10.45449			  -0.31090			 -0.03022
	83.00			  10.40011			  -0.14536			 0.08690
	83.25			  10.27192			  -0.28462			 0.12337
	83.50			  10.17635			  -0.27542			 0.02598
	83.75			  10.18368			  -0.31492			 -0.01620
	84.00			  10.10203			  -0.25885			 -0.07817
	84.25			  10.05469			  -0.26705			 0.03453
	84.50			  9.99964			  -0.35978			 -0.00382
	84.75			  10.01965			  -0.27793			 0.00409
	85.00			  10.02324			  -0.26270			 -0.06062
	85.25			  10.03329			  -0.24228			 -0.05032
	85.50			  10.05014			  -0.11640			 -0.02108
	85.75			  10.05513			  -0.15105			 0.03500
	86.00			  10.11640			  -0.14854			 0.07885
	86.25			  10.14777			  -0.18352			 -0.08832
	86.50			  10.12776			  -0.15021			 -0.13109
	86.75			  10.11347			  -0.16746			 -0.03082
	87.00			  10.11009			  -0.17047			 -0.09102
	87.25			  10.08679			  -0.15323			 -0.14108
	87.50			  10.10841			  -0.25265			 -0.07240
	87.75			  10.17657			  -0.17566			 -0.05920
	88.00			  10.11119			  -0.21081			 -0.06394
	88.25			  10.06289			  -0.19005			 -0.05821
	88.50			  10.02368			  -0.12444			 -0.07460
	88.75			  10.02332			  -0.12209			 -0.08828
	89.00			  9.98220			  -0.12912			 -0.05294
	89.25			  9.95384			  -0.17515			 -0.02184
	89.50			  10.02185			  -0.18771			 0.03593
	89.75			  9.99510			  -0.10603			 0.03860
	90.00			  10.03314			  -0.17047			 -0.07889
	90.25			  10.06289			  -0.12477			 -0.05337
	90.50			  10.15949			  -0.09012			 -0.09548
	90.75			  10.23366			  -0.11624			 -0.21333
	91.00			  10.27493			  -0.09330			 -0.08350
	91.25			  10.41213			  -0.18051			 -0.09435
	91.50			  10.40597			  -0.03321			 -0.09567
	91.75			  10.24715			  0.00997			 0.00779
	92.00			  10.24649			  0.04981			 -0.01393
	92.25			  10.29574			  0.04161			 0.04694
	92.50			  10.29303			  0.09868			 0.08391
	92.75			  10.30431			  0.05818			 0.08725
	93.00			  10.25763			  0.09216			 0.07475
	93.25			  10.36082			  0.10153			 0.14450
	93.50			  10.41095			  0.11492			 0.07691
	93.75			  10.26503			  0.20246			 0.17063
	94.00			  10.21922			  0.10839			 0.12804
	94.25			  10.11391			  -0.07406			 0.03654
	94.50			  10.06209			  -0.18955			 0.07895
	94.75			  9.96784			  -0.27090			 0.12718
	95.00			  10.03182			  -0.29400			 0.10350
	95.25			  10.06128			  -0.25868			 0.00792
	95.50			  10.02713			  -0.08594			 0.01953
	95.75			  9.90319			  -0.04242			 -0.02194
	96.00			  9.92196			  0.05115			 0.01152
	96.25			  9.88472			  -0.00426			 -0.01819
	96.50			  9.83943			  -0.08075			 -0.03018
	96.75			  9.84412			  -0.12845			 -0.10669
	97.00			  9.92870			  -0.14921			 -0.01646
	97.25			  9.86384			  -0.15574			 0.03741
	97.50			  9.78754			  -0.12377			 0.11983
	97.75			  9.86882			  -0.05681			 0.05135
	98.00			  9.86523			  -0.06669			 -0.04701
	98.25			  9.94644			  -0.02853			 -0.14452
	98.50			  9.97978			  -0.06636			 -0.14125
	98.75			  9.97018			  -0.10485			 -0.03794
	99.00			  9.94834			  -0.16176			 0.04616
	99.25			  9.88150			  -0.12712			 0.05518
	99.50			  9.88084			  -0.07841			 0.02594
	99.75			  9.77721			  -0.08745			 0.05135
	100.00			  9.75053			  -0.09197			 0.03380
	100.25			  9.95362			  -0.15323			 0.19322
	100.50			  9.91639			  -0.15088			 0.19895
	100.75			  9.99334			  -0.12377			 0.17801
	101.00			  10.07308			  -0.03489			 0.10638
	101.25			  10.10013			  -0.05414			 0.06982
	101.50			  10.12138			  -0.05246			 0.08352
	101.75			  10.11244			  -0.11540			 0.04184
	102.00			  10.12622			  -0.07757			 0.15257
	102.25			  10.07638			  0.04981			 0.15109
	102.50			  10.06253			  -0.01229			 0.06690
	102.75			  10.01269			  0.01717			 0.20237
	103.00			  10.01621			  -0.11172			 0.12720
	103.25			  10.09192			  -0.06669			 0.05831
	103.50			  10.12277			  -0.17951			 0.05965
	103.75			  10.15458			  -0.12243			 0.10601
	104.00			  10.15663			  -0.04460			 0.09575
	104.25			  10.12556			  -0.03422			 0.15381
	104.50			  10.23821			  0.01298			 0.09058
	104.75			  10.23747			  -0.01263			 0.00429
	105.00			  10.20310			  -0.01095			 0.09159
	105.25			  10.12622			  -0.09565			 0.05277
	105.50			  10.20940			  -0.08125			 0.08659
	105.75			  10.30329			  -0.02568			 0.07440
	106.00			  10.31142			  -0.04008			 -0.06538
	106.25			  10.42077			  0.02470			 0.03068
	106.50			  10.35848			  -0.02133			 0.14211
	106.75			  10.35774			  -0.01564			 0.14641
	107.00			  10.32579			  0.11910			 0.09147
	107.25			  10.30703			  -0.00007			 -0.01768
	107.50			  10.24488			  -0.09448			 -0.00440
	107.75			  10.23527			  0.02554			 0.10446
	108.00			  10.19526			  -0.01396			 0.02312
	108.25			  10.12255			  -0.06502			 -0.03673
	108.50			  10.05190			  -0.02367			 -0.04804
	108.75			  10.14916			  0.00980			 -0.07378
	109.00			  10.14865			  0.06153			 -0.07310
	109.25			  10.20361			  0.06889			 -0.04027
	109.50			  10.12827			  0.10906			 0.05436
	109.75			  10.16983			  0.13467			 0.02353
	110.00			  10.18111			  -0.01731			 0.08717
	110.25			  10.10335			  -0.14385			 0.06056
	110.50			  10.22589			  -0.18001			 0.04480
	110.75			  10.21768			  -0.03037			 0.03634
	111.00			  10.34858			  0.02571			 0.08541
	111.25			  10.38325			  0.07291			 0.12633
	111.50			  10.38171			  0.12346			 0.16662
	111.75			  10.38376			  0.12614			 0.03628
	112.00			  10.35642			  0.04278			 -0.01200
	112.25			  10.26591			  -0.03890			 0.00679
	112.50			  10.32799			  -0.07774			 -0.01795
	112.75			  10.26657			  -0.13867			 -0.03430
	113.00			  10.25785			  -0.10335			 -0.07149
	113.25			  10.25096			  -0.09598			 -0.03335
	113.50			  10.13501			  -0.02016			 -0.04787
	113.75			  10.09558			  -0.00208			 0.00784
	114.00			  10.08254			  -0.01865			 0.08894
	114.25			  9.98345			  0.03374			 0.05145
	114.50			  10.06509			  0.00378			 0.10576
	114.75			  10.10555			  0.04730			 0.04534
	115.00			  10.08759			  0.15392			 0.00767
	115.25			  10.11728			  0.23041			 -0.04882
	115.50			  10.06077			  0.25653			 -0.01008
	115.75			  10.04142			  0.18338			 0.03273
	116.00			  10.02911			  0.05600			 -0.03230
	116.25			  10.05175			  0.03257			 -0.02075
	116.50			  10.13648			  0.12932			 -0.07965
	116.75			  10.21380			  0.21820			 -0.14810
	117.00			  10.11662			  0.11994			 -0.18075
	117.25			  10.11537			  0.09919			 -0.15457
	117.50			  10.17012			  0.22104			 -0.10766
	117.75			  10.10760			  0.12262			 -0.10564
	118.00			  10.19533			  -0.01698			 -0.14106
	118.25			  10.26298			  -0.06083			 -0.15457
	118.50			  10.25111			  -0.13783			 -0.07895
	118.75			  10.24099			  -0.10519			 -0.07359
	119.00			  10.21834			  -0.20930			 -0.07258
	119.25			  10.14821			  -0.20662			 -0.16872
	119.50			  10.21944			  -0.35158			 -0.15842
	119.75			  10.15539			  -0.35727			 -0.06107
	120.00			  10.09089			  -0.35342			 -0.06008
	120.25			  10.21285			  -0.37668			 -0.14328
	120.50			  10.22846			  -0.41736			 -0.11073
	120.75			  10.14329			  -0.31760			 -0.23017
	121.00			  10.05520			  -0.16997			 -0.17663
	121.25			  10.04274			  -0.17080			 -0.17665
	121.50			  9.96696			  -0.15005			 -0.24737
	121.75			  9.92474			  -0.16812			 -0.21281
	122.00			  9.85849			  -0.24278			 -0.07295
	122.25			  9.96043			  -0.24177			 0.05759
	122.50			  9.93617			  -0.12527			 -0.01268
	122.75			  9.95736			  -0.15691			 -0.03978
	123.00			  9.94006			  -0.18118			 -0.04478
	123.25			  9.97165			  -0.15674			 -0.07069
	123.50			  9.96065			  -0.18269			 0.03687
	123.75			  9.92958			  -0.20846			 -0.01968
	124.00			  9.93075			  -0.21349			 -0.07798
	124.25			  9.97722			  -0.20160			 -0.15747
	124.50			  10.01467			  -0.26822			 -0.14584
	124.75			  9.93779			  -0.43929			 -0.09007
	125.00			  9.92789			  -0.38773			 -0.09460
	125.25			  10.02852			  -0.26337			 -0.02923
	125.50			  10.03336			  -0.20612			 -0.05590
	125.75			  10.10145			  -0.26571			 0.06233
	126.00			  10.21219			  -0.13900			 0.00835
	126.25			  10.23498			  -0.12544			 -0.08158
	126.50			  10.19255			  -0.27140			 -0.02091
	126.75			  10.21446			  -0.31542			 -0.03632
	127.00			  10.18983			  -0.26655			 -0.06464
	127.25			  10.16066			  -0.23759			 -0.09798
	127.50			  10.06202			  -0.29734			 -0.11400
	127.75			  10.09910			  -0.32647			 0.05458
	128.00			  10.04450			  -0.30889			 0.02742
	128.25			  10.05571			  -0.34388			 0.07005
	128.50			  10.07785			  -0.27542			 0.06686
	128.75			  10.15883			  -0.14703			 -0.00800
	129.00			  10.02193			  -0.14067			 -0.01828
	129.25			  10.05124			  -0.25901			 -0.08216
	129.50			  10.08605			  -0.12896			 -0.12413
	129.75			  10.11955			  -0.18419			 -0.07922
	130.00			  10.20889			  -0.20646			 -0.09680
	130.25			  10.23014			  -0.15724			 0.00720
	130.50			  10.15392			  -0.06401			 0.01562
	130.75			  9.98946			  -0.02853			 0.00534
	131.00			  9.92921			  -0.05045			 0.06818
	131.25			  9.95838			  -0.08996			 0.03965
	131.50			  9.98286			  -0.09314			 0.01333
	131.75			  9.90928			  -0.02200			 0.05677
	132.00			  9.86831			  -0.16963			 -0.00038
	132.25			  9.86347			  -0.14235			 -0.10181
	132.50			  9.75419			  -0.21114			 -0.07880
	132.75			  9.80726			  -0.18754			 0.00353
	133.00			  9.77259			  -0.21934			 -0.18390
	133.25			  9.70824			  -0.34438			 -0.10210
	133.50			  9.76167			  -0.49134			 -0.09862
	133.75			  9.72642			  -0.36597			 0.03681
	134.00			  9.69637			  -0.29852			 -0.00118
	134.25			  9.71586			  -0.23960			 -0.03096
	134.50			  9.81121			  -0.11942			 -0.05778
	134.75			  9.89132			  -0.07171			 -0.03360
	135.00			  9.98477			  -0.04593			 -0.00116
	135.25			  10.00096			  -0.11155			 0.00876
	135.50			  9.92254			  -0.16143			 -0.01298
	135.75			  9.89616			  -0.13967			 0.06682
	136.00			  9.87256			  -0.20177			 0.04410
	136.25			  9.88033			  -0.14185			 -0.00495
	136.50			  9.85827			  -0.19658			 0.02765
	136.75			  9.83181			  -0.22135			 -0.03405
	137.00			  9.80616			  -0.25316			 -0.01022
	137.25			  9.81862			  -0.09314			 0.02137
	137.50			  9.82704			  -0.01279			 0.06000
	137.75			  9.88597			  -0.04510			 -0.00786
	138.00			  9.81495			  -0.02568			 0.03269
	138.25			  9.81180			  -0.06736			 0.05782
	138.50			  9.90862			  0.01031			 0.06169
	138.75			  9.95193			  0.03474			 0.04944
	139.00			  9.83489			  0.05098			 0.02901
	139.25			  9.76174			  0.20698			 -0.00819
	139.50			  9.75720			  0.09500			 0.00847
	139.75			  9.76357			  0.02704			 0.03193
	140.00			  9.79150			  0.03843			 -0.01801
	140.25			  9.86574			  0.10471			 -0.03432
	140.50			  9.86178			  0.05282			 0.04940
	140.75			  9.88758			  0.11375			 -0.05269
	141.00			  9.92115			  -0.01346			 0.05069
	141.25			  9.89543			  -0.01932			 0.08325
	141.50			  9.79399			  -0.09966			 0.06655
	141.75			  9.86244			  -0.08343			 0.13896
	142.00			  9.86728			  -0.07305			 0.18142
	142.25			  9.89337			  -0.17767			 0.17704
	142.50			  9.84617			  -0.09381			 0.18305
	142.75			  9.80037			  -0.11724			 0.15181
	143.00			  9.85761			  -0.01765			 0.07957
	143.25			  9.91323			  -0.04995			 0.03850
	143.50			  9.90151			  -0.14452			 0.06439
	143.75			  9.82639			  -0.18754			 0.19232
	144.00			  9.89557			  -0.17917			 0.22072
	144.25			  9.86765			  -0.26186			 0.18118
	144.50			  9.93273			  -0.29316			 0.09338
	144.75			  9.86325			  -0.36848			 0.07440
	145.00			  9.83313			  -0.48347			 0.06478
	145.25			  9.88055			  -0.36999			 0.11453
	145.50			  9.89667			  -0.29517			 0.12160
	145.75			  9.89455			  -0.27140			 0.24228
	146.00			  9.85863			  -0.29333			 0.25626
	146.25			  9.76350			  -0.29015			 0.28748
	146.50			  9.82595			  -0.16444			 0.30340
	146.75			  9.81686			  -0.19909			 0.33565
	147.00			  9.82946			  -0.17097			 0.24710
	147.25			  9.85790			  -0.23826			 0.21481
	147.50			  9.82792			  -0.30019			 0.16816
	147.75			  9.81495			  -0.31425			 0.05656
	148.00			  9.77552			  -0.22269			 0.14388
	148.25			  9.74708			  -0.23541			 0.16699
	148.50			  9.77002			  -0.18888			 0.14159
	148.75			  9.79480			  0.03776			 0.05220
	149.00			  9.78849			  -0.11490			 0.12341
	149.25			  9.91016			  -0.14988			 0.10829
	149.50			  9.88986			  -0.16746			 0.12399
	149.75			  9.90920			  -0.04175			 0.17008
	150.00			  9.88531			  -0.10234			 0.05607
	150.25			  9.91807			  0.03424			 0.04968
	150.50			  9.85592			  0.04278			 0.14689
	150.75			  9.88656			  0.01265			 0.19014
	151.00			  9.87219			  0.04077			 0.20949
	151.25			  9.97583			  0.02453			 0.02956
	151.50			  9.96014			  0.01650			 0.05075
	151.75			  10.04824			  0.04295			 0.01879
	152.00			  10.07206			  0.10923			 0.11923
	152.25			  10.14821			  0.01365			 0.00471
	152.50			  10.05710			  0.10638			 0.03354
	152.75			  10.04259			  0.17200			 0.10819
	153.00			  9.97678			  0.08814			 0.10764
	153.25			  9.86472			  0.17317			 0.07464
	153.50			  9.92833			  0.12614			 0.05518
	153.75			  10.02500			  0.15091			 0.06466
	154.00			  10.06553			  0.07291			 0.04495
	154.25			  9.98176			  0.05768			 -0.00267
	154.50			  10.08371			  0.01633			 -0.10440
	154.75			  10.16499			  -0.04978			 0.02178
	155.00			  10.13853			  -0.13130			 0.01055
	155.25			  10.19093			  -0.19892			 -0.09351
	155.50			  10.09969			  -0.18001			 -0.04070
	155.75			  10.09492			  -0.17147			 0.04896
	156.00			  10.08789			  -0.13883			 0.03030
	156.25			  10.11706			  -0.08242			 0.00417
	156.50			  10.05403			  -0.05380			 0.01152
	156.75			  10.09228			  -0.17080			 -0.10461
	157.00			  10.13809			  -0.11389			 -0.01498
	157.25			  10.04802			  -0.15206			 -0.05527
	157.50			  9.96850			  -0.15206			 -0.12294
	157.75			  9.97106			  -0.18704			 -0.05045
	158.00			  10.02640			  -0.15072			 0.07201
	158.25			  10.02728			  -0.07372			 0.01908
	158.50			  9.99569			  -0.04895			 0.02409
	158.75			  9.91939			  0.00378			 -0.02851
	159.00			  9.94094			  -0.02970			 -0.02794
	159.25			  10.02984			  -0.05799			 0.00530
	159.50			  10.04684			  0.11157			 0.05127
	159.75			  10.08268			  0.16915			 -0.01844
	160.00			  10.09412			  0.08563			 -0.04793
	160.25			  10.04538			  0.12145			 -0.04007
	160.50			  9.96916			  0.17903			 -0.12477
	160.75			  9.95955			  0.15877			 -0.21549
	161.00			  9.93530			  0.06019			 -0.15340
	161.25			  9.92753			  0.09366			 -0.11631
	161.50			  10.00045			  0.08195			 -0.08591
	161.75			  10.07360			  0.06487			 -0.07775
	162.00			  10.09815			  0.08697			 -0.12877
	162.25			  10.09602			  0.03290			 -0.16516
	162.50			  9.99034			  0.06604			 0.01132
	162.75			  10.06128			  0.13417			 -0.09536
	163.00			  10.13157			  0.02068			 -0.08924
	163.25			  10.15480			  0.05065			 -0.04639
	163.50			  10.05498			  0.09249			 0.07901
	163.75			  10.00499			  0.05399			 0.01078
	164.00			  9.83562			  0.08395			 0.14034
	164.25			  9.84632			  0.08312			 0.12938
	164.50			  9.86926			  0.02621			 0.21926
	164.75			  9.94006			  -0.04677			 0.14390
	165.00			  9.99195			  0.00110			 -0.01605
	165.25			  9.94761			  -0.01396			 -0.08747
	165.50			  9.86626			  0.07609			 -0.11888
	165.75			  9.77413			  -0.13164			 0.01340