--------------TurbSim v2.00.* User Time Series Input File-----------------------
     Time series input from low-res turbsim run
--------------------------------------------------------------------------------
          3 nComp - Number of velocity components in the file
          1 nPoints - Number of time series points contained in this file (-)
          1 RefPtID - Index of the reference point (1-nPoints)
     Pointyi Pointzi ! nPoints listed in order of increasing height
       (m)     (m)
       1.68671   94.00000
--------Time Series-------------------------------------------------------------
Elapsed Time         Point01u             Point01v           Point01w
         (s)            (m/s)                (m/s)              (m/s)
	0.00			  9.93552			  0.24950			 0.20004
	0.25			  9.97267			  0.18957			 0.10094
	0.50			  9.94900			  0.11375			 0.14166
	0.75			  9.97341			  0.19175			 0.04701
	1.00			  9.90363			  0.20162			 0.06698
	1.25			  9.99693			  0.22171			 0.16633
	1.50			  9.96263			  0.22037			 0.07971
	1.75			  10.02874			  0.28147			 0.03432
	2.00			  9.98066			  0.26557			 -0.00606
	2.25			  10.03820			  0.28297			 0.04089
	2.50			  10.00558			  0.29117			 -0.01632
	2.75			  9.94468			  0.37738			 -0.02470
	3.00			  9.90598			  0.33821			 -0.02464
	3.25			  9.91455			  0.24079			 0.08232
	3.50			  9.89440			  0.14974			 0.00767
	3.75			  9.90818			  0.23343			 0.08601
	4.00			  9.92797			  0.24514			 0.07967
	4.25			  9.85739			  0.19995			 0.04420
	4.50			  9.97810			  0.12162			 0.01966
	4.75			  9.93661			  0.07726			 0.06101
	5.00			  9.93009			  0.02989			 0.09388
	5.25			  10.07294			  -0.03087			 0.14322
	5.50			  10.13289			  -0.01865			 0.31117
	5.75			  10.10064			  -0.01681			 0.36486
	6.00			  9.94153			  -0.00560			 0.29333
	6.25			  9.82917			  -0.07673			 0.27507
	6.50			  9.76211			  0.02001			 0.32523
	6.75			  9.83320			  0.10069			 0.27918
	7.00			  9.86442			  0.03223			 0.33127
	7.25			  9.87974			  0.09082			 0.28168
	7.50			  9.89359			  0.10404			 0.38172
	7.75			  9.82917			  0.17836			 0.27233
	8.00			  9.78769			  0.24364			 0.26139
	8.25			  9.79524			  0.31996			 0.29026
	8.50			  9.81173			  0.28682			 0.22834
	8.75			  9.83518			  0.16815			 0.15004
	9.00			  9.88568			  0.08262			 0.18202
	9.25			  9.95523			  -0.00325			 0.15047
	9.50			  9.98169			  0.07341			 0.11604
	9.75			  10.05263			  0.02805			 -0.01401
	10.00			  10.05022			  0.02035			 0.09431
	10.25			  9.97238			  0.05901			 0.12578
	10.50			  9.99459			  0.11927			 0.10047
	10.75			  9.93090			  0.15191			 0.16579
	11.00			  9.86941			  0.12563			 0.13251
	11.25			  9.91990			  0.17618			 0.05704
	11.50			  9.86186			  0.03424			 -0.00730
	11.75			  9.79538			  -0.02418			 0.01712
	12.00			  9.91140			  0.03592			 -0.06122
	12.25			  9.92020			  0.09735			 -0.06496
	12.50			  9.87021			  -0.03121			 -0.14617
	12.75			  9.88846			  -0.01497			 -0.17173
	13.00			  9.96065			  -0.03957			 0.07545
	13.25			  9.89455			  -0.14503			 0.02629
	13.50			  9.88546			  -0.13498			 -0.04384
	13.75			  9.83782			  0.01934			 -0.09651
	14.00			  9.94570			  -0.02066			 -0.19549
	14.25			  10.04237			  -0.02736			 -0.03308
	14.50			  10.07543			  -0.08159			 -0.01249
	14.75			  10.05630			  -0.19474			 0.07765
	15.00			  10.00302			  -0.20093			 0.02886
	15.25			  10.12490			  -0.18369			 -0.12397
	15.50			  9.94570			  -0.13197			 0.05559
	15.75			  9.79597			  -0.07724			 0.05664
	16.00			  9.92328			  -0.06150			 -0.04835
	16.25			  10.02310			  0.07073			 -0.02176
	16.50			  10.12006			  -0.10603			 -0.06332
	16.75			  10.12424			  -0.12912			 -0.01105
	17.00			  10.08210			  -0.12042			 -0.02392
	17.25			  10.10834			  -0.15356			 -0.02236
	17.50			  10.11119			  -0.22286			 -0.07310
	17.75			  10.13890			  -0.19290			 0.02238
	18.00			  10.06641			  -0.27307			 -0.07524
	18.25			  10.06568			  -0.30839			 -0.15128
	18.50			  10.19892			  -0.28948			 -0.14388
	18.75			  10.17701			  -0.29952			 -0.07538
	19.00			  10.11171			  -0.22336			 -0.05691
	19.25			  10.13384			  -0.22437			 -0.04697
	19.50			  10.06465			  -0.20043			 0.04977
	19.75			  10.08701			  -0.14101			 0.09184
	20.00			  10.04347			  -0.02752			 0.05080
	20.25			  10.02830			  0.00897			 -0.06550
	20.50			  10.04970			  -0.11741			 -0.13161
	20.75			  10.08034			  -0.13967			 -0.12251
	21.00			  10.07865			  -0.09498			 -0.13117
	21.25			  10.10211			  -0.12059			 -0.01673
	21.50			  10.07535			  -0.21784			 -0.04398
	21.75			  10.02552			  -0.22437			 -0.13291
	22.00			  9.96425			  -0.17984			 -0.06089
	22.25			  9.92115			  -0.12762			 -0.05512
	22.50			  9.90635			  -0.12226			 -0.15974
	22.75			  9.97539			  -0.18436			 -0.29727
	23.00			  9.89887			  -0.12394			 -0.16993
	23.25			  9.91309			  -0.12578			 -0.12248
	23.50			  10.00287			  -0.16227			 -0.09759
	23.75			  10.04318			  -0.28144			 -0.08455
	24.00			  10.03556			  -0.27358			 -0.03908
	24.25			  9.90605			  -0.25332			 0.06647
	24.50			  9.94248			  -0.34706			 0.08892
	24.75			  9.94702			  -0.43845			 -0.05456
	25.00			  9.92291			  -0.50423			 -0.03088
	25.25			  9.91565			  -0.33819			 -0.09250
	25.50			  9.86582			  -0.49586			 -0.07545
	25.75			  9.92965			  -0.40715			 -0.06538
	26.00			  9.92328			  -0.33400			 -0.01266
	26.25			  9.92731			  -0.33049			 0.01362
	26.50			  9.90481			  -0.37919			 0.02705
	26.75			  9.79450			  -0.43276			 0.06280
	27.00			  9.79179			  -0.42004			 0.05286
	27.25			  9.78622			  -0.40966			 0.05390
	27.50			  9.69578			  -0.32413			 0.00464
	27.75			  9.72165			  -0.36380			 0.07092
	28.00			  9.76277			  -0.39443			 0.06457
	28.25			  9.69204			  -0.42539			 0.11818
	28.50			  9.82712			  -0.45201			 0.14646
	28.75			  9.91162			  -0.34572			 0.13447
	29.00			  9.93449			  -0.39861			 0.12984
	29.25			  9.98711			  -0.44163			 0.19767
	29.50			  9.95926			  -0.39593			 0.23699
	29.75			  9.97802			  -0.50507			 -0.02369
	30.00			  10.02193			  -0.60215			 0.08856
	30.25			  9.95933			  -0.51729			 0.06371
	30.50			  9.93339			  -0.44180			 -0.00211
	30.75			  9.96014			  -0.39326			 0.05071
	31.00			  9.95017			  -0.34873			 0.00193
	31.25			  10.01592			  -0.27676			 0.01138
	31.50			  9.95574			  -0.25968			 0.06509
	31.75			  9.85402			  -0.32362			 0.00613
	32.00			  9.81605			  -0.23742			 0.06517
	32.25			  9.84823			  -0.20712			 0.19215
	32.50			  9.83709			  -0.14804			 0.10535
	32.75			  9.81774			  -0.22570			 0.13330
	33.00			  9.90034			  -0.26906			 0.03574
	33.25			  10.00228			  -0.10653			 0.11359
	33.50			  10.01804			  -0.22018			 0.06680
	33.75			  9.95054			  -0.23859			 0.03304
	34.00			  9.94138			  -0.02150			 -0.01715
	34.25			  9.90979			  0.11910			 -0.06927
	34.50			  9.87520			  0.01934			 -0.09843
	34.75			  9.94644			  0.06973			 -0.00967
	35.00			  9.96784			  0.01315			 -0.02991
	35.25			  9.98411			  -0.12795			 -0.00069
	35.50			  10.01452			  -0.12159			 -0.00948
	35.75			  10.06421			  -0.08862			 0.03401
	36.00			  10.05535			  -0.10351			 0.00444
	36.25			  10.11574			  -0.04192			 -0.03836
	36.50			  10.11764			  0.03156			 -0.14557
	36.75			  10.05197			  0.01248			 -0.16198
	37.00			  9.93969			  -0.04677			 0.00569
	37.25			  9.94666			  0.06621			 0.03107
	37.50			  10.01899			  0.12881			 -0.08377
	37.75			  9.99686			  0.11910			 -0.00079
	38.00			  9.89176			  0.19309			 0.03755
	38.25			  9.85775			  0.18690			 0.06239
	38.50			  9.97209			  0.19041			 0.02798
	38.75			  9.96095			  0.14990			 0.17945
	39.00			  9.89117			  0.05249			 0.19458
	39.25			  9.80770			  0.11592			 0.14114
	39.50			  9.75368			  0.19928			 0.13463
	39.75			  9.86303			  0.15342			 0.12531
	40.00			  9.86178			  0.08529			 0.27953
	40.25			  9.82169			  0.16212			 0.34012
	40.50			  9.71916			  0.11944			 0.26300
	40.75			  9.76211			  0.22389			 0.22064
	41.00			  9.79194			  0.20748			 0.18258
	41.25			  9.82140			  0.22138			 0.11942
	41.50			  9.90613			  0.27025			 0.01517
	41.75			  9.93024			  0.28281			 0.01896
	42.00			  9.77259			  0.16095			 0.15529
	42.25			  9.94702			  0.24314			 -0.01070
	42.50			  9.89176			  0.15543			 0.13120
	42.75			  9.81737			  0.01483			 0.19230
	43.00			  9.85394			  -0.02987			 0.14135
	43.25			  9.92078			  0.00679			 0.17049
	43.50			  9.92328			  0.10906			 0.07691
	43.75			  9.83789			  0.11777			 0.03694
	44.00			  9.99144			  0.10923			 -0.09184
	44.25			  9.97143			  0.13417			 -0.02551
	44.50			  9.89499			  0.21853			 -0.09028
	44.75			  9.85343			  0.30624			 -0.09097
	45.00			  9.79956			  0.26322			 -0.03317
	45.25			  9.77105			  0.24682			 0.06360
	45.50			  9.77472			  0.22188			 0.19967
	45.75			  9.70032			  0.09283			 0.10650
	46.00			  9.77252			  0.05433			 0.01103
	46.25			  9.73712			  -0.00141			 -0.01770
	46.50			  9.66177			  0.01667			 0.04328
	46.75			  9.70502			  -0.00610			 0.09417
	47.00			  9.69776			  -0.09230			 0.09930
	47.25			  9.77325			  -0.18620			 0.06179
	47.50			  9.82602			  -0.09699			 0.11769
	47.75			  9.90605			  0.03106			 0.12487
	48.00			  9.82609			  0.13718			 -0.00396
	48.25			  9.79370			  0.10488			 -0.03479
	48.50			  9.79362			  0.08010			 0.02380
	48.75			  9.86831			  0.05901			 0.10012
	49.00			  9.89909			  0.02838			 0.01855
	49.25			  10.00675			  -0.01095			 -0.04404
	49.50			  10.04135			  -0.04744			 -0.06723
	49.75			  9.94306			  -0.06686			 -0.10953
	50.00			  9.90942			  -0.01798			 -0.08622
	50.25			  9.96432			  -0.00945			 -0.04157
	50.50			  10.02449			  0.02420			 -0.00042
	50.75			  9.97407			  0.00010			 -0.01476
	51.00			  9.99012			  -0.06000			 -0.15632
	51.25			  10.02669			  -0.02652			 -0.11911
	51.50			  9.95816			  -0.06251			 -0.21627
	51.75			  9.91126			  -0.05732			 -0.05008
	52.00			  9.94849			  -0.16729			 -0.03665
	52.25			  10.05527			  -0.21298			 -0.16631
	52.50			  9.97282			  -0.09950			 -0.17492
	52.75			  9.90657			  -0.20947			 -0.11456
	53.00			  9.86530			  -0.17130			 -0.21757
	53.25			  9.81077			  -0.06401			 -0.20091
	53.50			  9.80594			  -0.18386			 -0.15628
	53.75			  9.96938			  -0.13448			 -0.17648
	54.00			  9.93082			  -0.00426			 -0.17630
	54.25			  9.99356			  -0.07372			 -0.10518
	54.50			  9.98521			  0.02169			 -0.04530
	54.75			  9.96058			  -0.02267			 -0.08908
	55.00			  9.85651			  -0.03690			 0.04235
	55.25			  9.84918			  -0.10921			 0.04639
	55.50			  9.83723			  -0.02836			 -0.04163
	55.75			  9.83327			  0.05500			 -0.08033
	56.00			  9.86919			  -0.02267			 -0.03751
	56.25			  9.91309			  -0.13147			 -0.10506
	56.50			  9.80293			  -0.17700			 -0.08618
	56.75			  9.76020			  -0.30253			 -0.03708
	57.00			  9.75163			  -0.26337			 0.11620
	57.25			  9.66925			  -0.35944			 -0.01140
	57.50			  9.65027			  -0.32580			 0.08144
	57.75			  9.67299			  -0.35359			 0.07849
	58.00			  9.68230			  -0.27140			 0.05992
	58.25			  9.75273			  -0.29400			 -0.08634
	58.50			  9.84610			  -0.30806			 -0.08739
	58.75			  9.87439			  -0.30521			 -0.02400
	59.00			  9.85702			  -0.29718			 -0.09200
	59.25			  9.86677			  -0.34438			 -0.04105
	59.50			  9.81217			  -0.32764			 0.06210
	59.75			  9.74437			  -0.30672			 0.01912
	60.00			  9.73397			  -0.39493			 -0.01410
	60.25			  9.70018			  -0.42941			 -0.00057
	60.50			  9.75346			  -0.40229			 -0.05677
	60.75			  9.71344			  -0.30237			 -0.08060
	61.00			  9.70098			  -0.25148			 -0.12483
	61.25			  9.70787			  -0.22671			 -0.01663
	61.50			  9.66742			  -0.05916			 -0.03636
	61.75			  9.71381			  0.06989			 -0.08084
	62.00			  9.66639			  0.00277			 -0.01675
	62.25			  9.72121			  0.03977			 0.10061
	62.50			  9.82228			  0.00830			 0.12483
	62.75			  9.96652			  -0.19106			 0.08383
	63.00			  9.98623			  -0.23207			 0.17642
	63.25			  10.03219			  -0.20662			 0.19817
	63.50			  10.04743			  -0.07288			 0.13779
	63.75			  10.00881			  -0.05748			 0.03076
	64.00			  9.96835			  -0.05045			 0.12003
	64.25			  9.92921			  -0.13130			 0.10434
	64.50			  9.88846			  -0.09598			 0.05924
	64.75			  9.79282			  -0.06401			 0.06054
	65.00			  9.69908			  -0.05564			 0.00738
	65.25			  9.76431			  -0.07339			 0.06816
	65.50			  9.84522			  -0.07506			 0.01204
	65.75			  9.75178			  0.00160			 0.07454
	66.00			  9.71733			  0.14204			 0.11579
	66.25			  9.75742			  0.14388			 0.22088
	66.50			  9.71051			  0.05148			 0.18783
	66.75			  9.79890			  0.11258			 0.16196
	67.00			  9.75874			  0.08312			 0.19940
	67.25			  9.74569			  0.15074			 0.14435
	67.50			  9.67460			  0.24079			 0.10067
	67.75			  9.62894			  0.24180			 0.13167
	68.00			  9.59559			  0.17099			 0.18332
	68.25			  9.62784			  0.22556			 0.17356
	68.50			  9.67878			  0.32582			 0.14753
	68.75			  9.70230			  0.29703			 0.22280
	69.00			  9.63685			  0.17735			 0.24685
	69.25			  9.58526			  0.06638			 0.28645
	69.50			  9.76797			  0.00361			 0.24518
	69.75			  9.90268			  -0.03137			 0.18344
	70.00			  9.79223			  0.11207			 0.22323
	70.25			  9.73221			  0.07492			 0.14135
	70.50			  9.82353			  0.04931			 0.11589
	70.75			  9.75822			  -0.01396			 0.08132
	71.00			  9.77904			  -0.02284			 0.09927
	71.25			  9.75925			  0.00026			 0.12331
	71.50			  9.72319			  -0.11992			 0.18147
	71.75			  9.79121			  -0.04008			 0.20610
	72.00			  9.74320			  -0.05430			 0.12310
	72.25			  9.73382			  -0.03890			 0.11260
	72.50			  9.66991			  -0.05715			 0.08770
	72.75			  9.57961			  -0.03857			 0.10212
	73.00			  9.67394			  -0.06251			 0.08064
	73.25			  9.64770			  -0.03422			 0.04538
	73.50			  9.61465			  -0.12795			 0.13871
	73.75			  9.53850			  -0.16997			 0.13270
	74.00			  9.56532			  -0.20026			 0.12841
	74.25			  9.61670			  -0.16478			 0.21779
	74.50			  9.62080			  -0.07339			 0.25367
	74.75			  9.63326			  -0.10318			 0.23771
	75.00			  9.64602			  -0.12176			 0.02975
	75.25			  9.61611			  -0.13816			 -0.00654
	75.50			  9.69629			  -0.20344			 -0.02409
	75.75			  9.86809			  -0.25165			 0.02135
	76.00			  9.92181			  -0.26136			 0.07569
	76.25			  10.01086			  -0.21867			 0.19664
	76.50			  9.90620			  -0.20629			 0.20888
	76.75			  9.86296			  -0.24813			 0.19092
	77.00			  10.01482			  -0.26855			 0.27694
	77.25			  9.97685			  -0.18788			 0.23808
	77.50			  9.87849			  -0.11808			 0.22226
	77.75			  9.93332			  -0.14385			 0.18142
	78.00			  10.00338			  -0.16059			 0.13896
	78.25			  9.92379			  -0.07941			 0.09196
	78.50			  9.89191			  -0.02752			 0.12075
	78.75			  9.83100			  -0.07891			 0.15241
	79.00			  9.88025			  -0.11088			 0.16548
	79.25			  9.83884			  -0.18419			 0.15515
	79.50			  9.76797			  -0.23876			 0.07390
	79.75			  9.78102			  -0.32480			 0.00359
	80.00			  9.84471			  -0.29969			 0.02738
	80.25			  9.77992			  -0.36982			 0.05407
	80.50			  9.74569			  -0.43862			 0.05341
	80.75			  9.71132			  -0.39928			 -0.00046
	81.00			  9.67159			  -0.31777			 -0.08577
	81.25			  9.68662			  -0.32915			 -0.11353
	81.50			  9.69695			  -0.36882			 -0.11905
	81.75			  9.70340			  -0.34890			 -0.09437
	82.00			  9.65444			  -0.40581			 -0.14740
	82.25			  9.62022			  -0.32111			 -0.07574
	82.50			  9.62271			  -0.24746			 -0.07102
	82.75			  9.65701			  -0.24328			 -0.02495
	83.00			  9.71557			  -0.21466			 -0.04802
	83.25			  9.76233			  -0.22771			 -0.01107
	83.50			  9.69717			  -0.21616			 0.03673
	83.75			  9.77391			  -0.05380			 -0.07699
	84.00			  9.71410			  -0.07891			 -0.14409
	84.25			  9.67716			  -0.11406			 -0.12121
	84.50			  9.68134			  -0.22185			 -0.13807
	84.75			  9.59735			  -0.20679			 -0.15609
	85.00			  9.57610			  -0.09966			 -0.12423
	85.25			  9.57448			  -0.01313			 0.00539
	85.50			  9.65276			  0.00076			 -0.01222
	85.75			  9.64895			  -0.03572			 0.00469
	86.00			  9.65481			  0.06939			 -0.08898
	86.25			  9.74635			  0.06889			 -0.21782
	86.50			  9.77164			  0.04713			 -0.12333
	86.75			  9.68728			  0.00612			 -0.09666
	87.00			  9.75500			  -0.06217			 -0.18040
	87.25			  9.85138			  -0.06401			 -0.19067
	87.50			  9.92841			  0.04244			 -0.11491
	87.75			  10.01152			  0.11207			 -0.12316
	88.00			  10.03592			  0.10521			 -0.09287
	88.25			  10.04948			  0.08395			 -0.15513
	88.50			  10.03944			  0.05232			 -0.17698
	88.75			  10.12864			  -0.01095			 -0.15257
	89.00			  10.10233			  -0.18771			 -0.13120
	89.25			  10.18258			  -0.12243			 -0.13612
	89.50			  10.23916			  -0.23591			 -0.11870
	89.75			  10.20435			  -0.08008			 -0.11268
	90.00			  10.09785			  -0.14118			 -0.20871
	90.25			  10.05073			  -0.21817			 -0.15509
	90.50			  10.14996			  0.01064			 -0.02991
	90.75			  10.14102			  0.01466			 0.02034
	91.00			  10.13267			  -0.13532			 0.07609
	91.25			  10.18229			  -0.12226			 0.07777
	91.50			  10.11046			  -0.20361			 0.07388
	91.75			  10.06781			  -0.20177			 0.14613
	92.00			  10.11720			  -0.26253			 0.20385
	92.25			  10.20244			  -0.31458			 0.14650
	92.50			  10.18903			  -0.25667			 0.09719
	92.75			  10.21277			  -0.24763			 0.00798
	93.00			  10.12204			  -0.27625			 -0.09551
	93.25			  10.05190			  -0.26621			 -0.08228
	93.50			  9.99642			  -0.28931			 0.00199
	93.75			  9.93713			  -0.34789			 -0.13025
	94.00			  9.95684			  -0.32346			 -0.16884
	94.25			  10.02390			  -0.25316			 -0.16826
	94.50			  9.91551			  -0.36396			 -0.06976
	94.75			  9.87241			  -0.32162			 -0.09466
	95.00			  9.83452			  -0.32881			 -0.01519
	95.25			  9.89081			  -0.33434			 0.07143
	95.50			  9.85262			  -0.35225			 0.02157
	95.75			  9.80191			  -0.21549			 0.03626
	96.00			  9.93420			  -0.10167			 0.07695
	96.25			  9.81884			  -0.10586			 0.02948
	96.50			  9.77721			  -0.18754			 -0.04285
	96.75			  9.64264			  -0.21466			 -0.04336
	97.00			  9.66397			  -0.17147			 -0.09289
	97.25			  9.69541			  -0.19223			 -0.02330
	97.50			  9.69607			  -0.15373			 -0.09178
	97.75			  9.60937			  -0.16327			 -0.08999
	98.00			  9.48478			  -0.09883			 -0.13678
	98.25			  9.53557			  -0.05196			 -0.10216
	98.50			  9.58665			  0.01282			 -0.01750
	98.75			  9.66537			  -0.00576			 -0.05864
	99.00			  9.81744			  0.01148			 -0.10280
	99.25			  9.76343			  0.06521			 -0.07876
	99.50			  9.83130			  -0.07807			 -0.08404
	99.75			  9.89799			  -0.17197			 -0.16773
	100.00			  9.96395			  -0.10720			 -0.11099
	100.25			  10.08210			  -0.20244			 -0.05597
	100.50			  10.13413			  -0.15825			 -0.02196
	100.75			  10.14996			  -0.04928			 -0.06884
	101.00			  10.10819			  -0.08192			 0.04579
	101.25			  10.14872			  -0.14904			 0.04194
	101.50			  10.18170			  -0.17700			 0.10234
	101.75			  10.24986			  -0.27625			 0.02273
	102.00			  10.25572			  -0.28462			 -0.13455
	102.25			  10.17576			  -0.20378			 -0.15787
	102.50			  10.22304			  -0.12795			 -0.18843
	102.75			  10.13699			  -0.25784			 -0.11017
	103.00			  10.07374			  -0.14620			 -0.00308
	103.25			  10.03908			  -0.15072			 -0.16079
	103.50			  10.07081			  -0.18269			 -0.06540
	103.75			  10.07814			  -0.30320			 -0.07403
	104.00			  10.03255			  -0.27609			 -0.11342
	104.25			  10.05601			  -0.27441			 0.02964
	104.50			  9.95149			  -0.36279			 0.06515
	104.75			  9.96600			  -0.31207			 0.02330
	105.00			  10.01166			  -0.23826			 -0.00248
	105.25			  10.08048			  -0.30320			 -0.00742
	105.50			  10.13838			  -0.41669			 0.11966
	105.75			  10.08107			  -0.52063			 0.10696
	106.00			  10.11017			  -0.50791			 0.04559
	106.25			  10.09829			  -0.44916			 0.11394
	106.50			  10.04281			  -0.38974			 0.03306
	106.75			  9.95802			  -0.42338			 0.09864
	107.00			  10.05630			  -0.47527			 0.06519
	107.25			  10.11039			  -0.47226			 0.01230
	107.50			  9.94240			  -0.42958			 0.01387
	107.75			  9.91521			  -0.54474			 0.04865
	108.00			  9.91016			  -0.55595			 -0.00695
	108.25			  10.02324			  -0.48632			 0.01313
	108.50			  10.04318			  -0.59462			 -0.03020
	108.75			  10.03658			  -0.53620			 -0.03549
	109.00			  10.14557			  -0.46473			 -0.09907
	109.25			  10.04179			  -0.41585			 -0.08037
	109.50			  9.95787			  -0.37484			 -0.07903
	109.75			  9.98828			  -0.49218			 -0.11120
	110.00			  9.98301			  -0.54792			 -0.18052
	110.25			  9.87806			  -0.53269			 -0.22949
	110.50			  9.90004			  -0.65437			 -0.12370
	110.75			  9.95347			  -0.63161			 -0.03797
	111.00			  10.09104			  -0.58424			 0.08426
	111.25			  10.16367			  -0.44096			 -0.02596
	111.50			  10.13494			  -0.40079			 -0.05774
	111.75			  10.05051			  -0.52616			 0.02188
	112.00			  9.98689			  -0.44163			 0.13863
	112.25			  9.93552			  -0.45402			 0.07419
	112.50			  9.99341			  -0.42924			 0.07884
	112.75			  10.07103			  -0.48749			 0.03867
	113.00			  10.06018			  -0.40347			 0.06968
	113.25			  9.93339			  -0.41568			 0.09394
	113.50			  9.84024			  -0.51394			 -0.01680
	113.75			  9.95714			  -0.49151			 -0.02759
	114.00			  9.95538			  -0.52381			 -0.16532
	114.25			  10.01679			  -0.52900			 -0.20476
	114.50			  10.01848			  -0.37668			 -0.17426
	114.75			  10.03849			  -0.32982			 -0.13449
	115.00			  10.00287			  -0.44297			 -0.17057
	115.25			  9.91910			  -0.52683			 -0.21005
	115.50			  9.98689			  -0.43142			 -0.24901
	115.75			  9.94101			  -0.31023			 -0.29984
	116.00			  10.00756			  -0.35509			 -0.34243
	116.25			  9.99378			  -0.29835			 -0.33310
	116.50			  9.97091			  -0.39192			 -0.23882
	116.75			  10.01687			  -0.41234			 -0.20402
	117.00			  10.04875			  -0.38656			 -0.13097
	117.25			  10.03688			  -0.28362			 -0.01824
	117.50			  9.91690			  -0.23290			 -0.01817
	117.75			  9.92841			  -0.19725			 -0.07469
	118.00			  10.04611			  -0.24412			 -0.01095
	118.25			  10.13582			  -0.24797			 0.01618
	118.50			  10.14139			  -0.22135			 0.02450
	118.75			  10.18273			  -0.24060			 -0.09557
	119.00			  10.21483			  -0.09063			 -0.12187
	119.25			  10.19658			  -0.07255			 -0.09962
	119.50			  10.32645			  -0.02685			 -0.20768
	119.75			  10.42202			  -0.02551			 -0.22753
	120.00			  10.35906			  0.00595			 -0.07823
	120.25			  10.40282			  0.00746			 -0.00598
	120.50			  10.42151			  0.05600			 0.01338
	120.75			  10.46900			  0.07107			 0.07666
	121.00			  10.41227			  -0.01982			 0.01064
	121.25			  10.33004			  -0.04376			 0.07557
	121.50			  10.38977			  -0.09146			 0.15132
	121.75			  10.25543			  -0.09531			 0.17210
	122.00			  10.20618			  -0.18905			 0.19028
	122.25			  10.30080			  -0.21650			 0.10753
	122.50			  10.23755			  -0.23006			 -0.00646
	122.75			  10.17877			  -0.17382			 -0.11721
	123.00			  10.15480			  -0.20528			 -0.07123
	123.25			  10.11603			  -0.25366			 -0.03840
	123.50			  10.11728			  -0.20378			 -0.09221
	123.75			  10.03424			  -0.15892			 -0.04672
	124.00			  10.13281			  -0.17951			 -0.05020
	124.25			  10.18031			  -0.12712			 -0.03671
	124.50			  10.13084			  -0.11423			 0.06490
	124.75			  10.11500			  -0.14770			 -0.00411
	125.00			  10.18705			  -0.23508			 -0.02355
	125.25			  10.24026			  -0.27458			 -0.07843
	125.50			  10.21666			  -0.32413			 -0.09621
	125.75			  10.20273			  -0.34354			 0.01941
	126.00			  10.17635			  -0.28898			 0.10457
	126.25			  10.20933			  -0.44732			 0.18138
	126.50			  10.08899			  -0.43611			 0.08929
	126.75			  10.03622			  -0.41117			 0.25270
	127.00			  9.98748			  -0.42271			 0.26462
	127.25			  9.94226			  -0.44280			 0.19500
	127.50			  9.95010			  -0.43828			 0.21254
	127.75			  9.94885			  -0.36781			 0.13140
	128.00			  9.93170			  -0.42087			 0.22961
	128.25			  9.89850			  -0.39058			 0.12615
	128.50			  9.89125			  -0.38589			 0.08305
	128.75			  9.92027			  -0.48331			 0.08611
	129.00			  9.96527			  -0.40547			 0.10259
	129.25			  9.81524			  -0.39510			 0.16342
	129.50			  9.84933			  -0.46908			 -0.00275
	129.75			  9.74657			  -0.46607			 0.09989
	130.00			  9.73946			  -0.49620			 0.22793
	130.25			  9.65181			  -0.43175			 0.31864
	130.50			  9.64792			  -0.26571			 0.43370
	130.75			  9.63495			  -0.38539			 0.39966
	131.00			  9.62982			  -0.34204			 0.34367
	131.25			  9.60747			  -0.40531			 0.45063
	131.50			  9.62535			  -0.30906			 0.37320
	131.75			  9.63759			  -0.20629			 0.37311
	132.00			  9.63019			  -0.20579			 0.36080
	132.25			  9.58650			  -0.15139			 0.21343
	132.50			  9.60747			  -0.20796			 0.22342
	132.75			  9.63495			  -0.16846			 0.15914
	133.00			  9.59889			  -0.19156			 0.19496
	133.25			  9.65422			  -0.20461			 0.19403
	133.50			  9.65041			  -0.15925			 0.04188
	133.75			  9.74474			  -0.09263			 0.14178
	134.00			  9.79553			  -0.01631			 0.18305
	134.25			  9.73609			  -0.13013			 0.13984
	134.50			  9.64792			  -0.12912			 0.13068
	134.75			  9.69124			  -0.18018			 0.05203
	135.00			  9.59845			  -0.13532			 0.12362
	135.25			  9.55081			  -0.20512			 0.17988
	135.50			  9.57214			  -0.18988			 0.10288
	135.75			  9.58108			  -0.29718			 0.12347
	136.00			  9.63817			  -0.27324			 0.13387
	136.25			  9.56584			  -0.26722			 0.09971
	136.50			  9.69974			  -0.18587			 0.09062
	136.75			  9.58262			  -0.29919			 0.03926
	137.00			  9.68977			  -0.34455			 0.06807
	137.25			  9.56906			  -0.45000			 0.15661
	137.50			  9.45934			  -0.43376			 0.17621
	137.75			  9.49394			  -0.36062			 0.22284
	138.00			  9.63510			  -0.19608			 0.20768
	138.25			  9.67826			  -0.09314			 0.16285
	138.50			  9.68684			  -0.11105			 0.14110
	138.75			  9.70736			  -0.14419			 0.07201
	139.00			  9.64360			  -0.33953			 0.17848
	139.25			  9.70604			  -0.26019			 0.09614
	139.50			  9.70633			  -0.22872			 0.13241
	139.75			  9.59574			  -0.28412			 0.08315
	140.00			  9.61560			  -0.21031			 0.05910
	140.25			  9.61348			  -0.06284			 -0.00053
	140.50			  9.60519			  -0.05397			 0.12512
	140.75			  9.73191			  0.01231			 0.11346
	141.00			  9.66067			  0.00428			 0.09133
	141.25			  9.66155			  -0.10904			 0.11445
	141.50			  9.66082			  -0.13883			 0.05771
	141.75			  9.68794			  -0.17415			 0.00950
	142.00			  9.68589			  -0.09381			 0.03245
	142.25			  9.72649			  -0.12293			 0.08745
	142.50			  9.77596			  -0.12795			 0.09446
	142.75			  9.93977			  -0.05598			 0.23816
	143.00			  9.82661			  -0.14469			 0.32579
	143.25			  9.76783			  -0.19424			 0.32313
	143.50			  9.72275			  -0.02434			 0.28264
	143.75			  9.71989			  -0.06234			 0.23277
	144.00			  9.79472			  -0.08778			 0.16969
	144.25			  9.81546			  -0.04577			 0.27859
	144.50			  9.72063			  -0.05430			 0.08568
	144.75			  9.68310			  -0.06318			 0.04252
	145.00			  9.76511			  -0.14452			 0.03829
	145.25			  9.76519			  -0.15758			 0.14936
	145.50			  9.82499			  -0.10368			 0.01653
	145.75			  9.81444			  -0.03121			 0.01834
	146.00			  9.77134			  -0.02987			 0.12516
	146.25			  9.79326			  0.05617			 0.16546
	146.50			  9.86611			  0.01801			 0.21545
	146.75			  9.88780			  -0.12912			 0.16678
	147.00			  9.96139			  -0.16327			 0.28322
	147.25			  9.82243			  -0.22319			 0.35127
	147.50			  9.92342			  -0.15574			 0.31605
	147.75			  10.01504			  -0.16377			 0.18991
	148.00			  9.93222			  -0.14553			 0.20381
	148.25			  9.88245			  -0.09263			 0.03127
	148.50			  9.85402			  -0.17800			 0.05761
	148.75			  9.85167			  -0.20160			 -0.01642
	149.00			  9.88670			  -0.16578			 0.01784
	149.25			  9.85577			  -0.13733			 0.09730
	149.50			  9.84332			  -0.09180			 0.07767
	149.75			  9.77486			  -0.06703			 0.06789
	150.00			  9.77010			  -0.01011			 -0.01321
	150.25			  9.79604			  -0.01078			 0.05040
	150.50			  9.81722			  -0.00794			 0.12409
	150.75			  9.81327			  0.03692			 0.03304
	151.00			  9.85900			  0.00043			 0.06255
	151.25			  9.89007			  -0.01698			 0.01541
	151.50			  9.79260			  -0.19859			 -0.00952
	151.75			  9.79663			  -0.01196			 -0.06435
	152.00			  9.80989			  -0.04794			 -0.05399
	152.25			  9.84280			  -0.11657			 -0.07779
	152.50			  9.90928			  -0.06167			 0.03449
	152.75			  9.87439			  0.01884			 -0.01080
	153.00			  9.81737			  0.00813			 0.00242
	153.25			  9.79157			  -0.02802			 -0.00530
	153.50			  9.71945			  0.07592			 -0.07850
	153.75			  9.81854			  0.14086			 0.06255
	154.00			  9.90158			  0.06705			 0.09231
	154.25			  9.92467			  0.03474			 0.00401
	154.50			  9.94819			  0.14538			 0.05759
	154.75			  9.88824			  0.03742			 0.05110
	155.00			  9.86435			  0.01416			 -0.02623
	155.25			  9.76592			  0.04261			 0.03278
	155.50			  9.79985			  0.10421			 0.04147
	155.75			  9.93625			  0.09366			 0.06430
	156.00			  9.97429			  0.17233			 0.03675
	156.25			  9.93867			  0.00143			 0.02303
	156.50			  9.91851			  0.00629			 0.02779
	156.75			  9.88370			  0.00461			 -0.08259
	157.00			  9.77647			  -0.01497			 -0.08202
	157.25			  9.81979			  0.03809			 0.05722
	157.50			  9.92174			  0.17283			 -0.06729
	157.75			  9.83980			  0.21267			 -0.13772
	158.00			  9.87351			  0.10889			 -0.11715
	158.25			  9.91778			  0.13953			 -0.05903
	158.50			  9.92166			  0.09835			 -0.01373
	158.75			  9.94937			  0.03458			 -0.06690
	159.00			  9.93163			  -0.13699			 -0.09143
	159.25			  9.85248			  -0.13532			 -0.11635
	159.50			  9.86222			  -0.06602			 -0.20237
	159.75			  9.95442			  -0.19591			 -0.15233
	160.00			  9.99239			  -0.24094			 -0.16182
	160.25			  9.98675			  -0.29986			 -0.14588
	160.50			  9.96205			  -0.25818			 -0.06801
	160.75			  9.91250			  -0.18118			 -0.03932
	161.00			  9.84354			  -0.20261			 0.02726
	161.25			  9.78182			  -0.13615			 0.02771
	161.50			  9.78373			  -0.23960			 -0.04878
	161.75			  9.80550			  -0.27558			 0.05629
	162.00			  9.82074			  -0.15323			 0.08031
	162.25			  9.94468			  -0.12845			 -0.10605
	162.50			  9.91837			  -0.09498			 0.01282
	162.75			  9.90239			  -0.14352			 0.02608
	163.00			  9.91968			  -0.05497			 -0.02415
	163.25			  9.98088			  -0.02869			 0.07911
	163.50			  9.97634			  -0.15323			 0.12411
	163.75			  9.97641			  -0.23608			 0.08982
	164.00			  9.89667			  -0.21683			 0.09118
	164.25			  9.93647			  -0.24261			 0.17953
	164.50			  9.91902			  -0.18218			 0.15449
	164.75			  9.89293			  -0.21867			 0.14679
	165.00			  9.91338			  -0.21014			 0.13400
	165.25			  9.91023			  -0.13749			 0.03584
	165.50			  9.79758			  -0.15289			 -0.00831
	165.75			  9.77831			  -0.23340			 0.01033
	166.00			  9.71660			  -0.21181			 0.06274
	166.25			  9.61604			  -0.20562			 0.05625
	166.50			  9.65642			  -0.13197			 0.03065
	166.75			  9.62659			  -0.05799			 0.00646