--------------TurbSim v2.00.* User Time Series Input File-----------------------
     Time series input from low-res turbsim run
--------------------------------------------------------------------------------
          3 nComp - Number of velocity components in the file
          1 nPoints - Number of time series points contained in this file (-)
          1 RefPtID - Index of the reference point (1-nPoints)
     Pointyi Pointzi ! nPoints listed in order of increasing height
       (m)     (m)
       1.18840   94.00000
--------Time Series-------------------------------------------------------------
Elapsed Time         Point01u             Point01v           Point01w
         (s)            (m/s)                (m/s)              (m/s)
	0.00			  10.06594			  0.07507			 0.21815
	0.25			  9.99389			  0.12455			 0.14580
	0.50			  10.04125			  0.10643			 0.28953
	0.75			  10.05748			  0.09354			 0.27898
	1.00			  9.99638			  0.21359			 0.35007
	1.25			  10.16780			  0.17926			 0.33899
	1.50			  10.20763			  0.24983			 0.20215
	1.75			  10.24769			  0.19547			 0.10189
	2.00			  10.24940			  0.16149			 0.10768
	2.25			  10.29521			  0.17160			 0.36641
	2.50			  10.21594			  0.20174			 0.24944
	2.75			  10.26586			  0.04109			 0.16826
	3.00			  10.28178			  0.10782			 0.18688
	3.25			  10.21307			  0.16480			 0.08906
	3.50			  10.20903			  0.26987			 0.19454
	3.75			  10.35344			  0.21324			 0.19222
	4.00			  10.27673			  0.12107			 0.10024
	4.25			  10.28108			  0.24687			 0.17146
	4.50			  10.09117			  0.17770			 0.12467
	4.75			  10.18054			  0.24042			 0.16238
	5.00			  10.28543			  0.09876			 0.06745
	5.25			  10.35670			  0.06914			 0.07359
	5.50			  10.32238			  0.18501			 0.22519
	5.75			  10.21004			  0.04109			 0.21620
	6.00			  10.20522			  0.03882			 0.20224
	6.25			  10.17673			  0.00554			 0.13456
	6.50			  10.24404			  -0.03488			 0.05219
	6.75			  10.21470			  -0.02234			 0.20732
	7.00			  10.24482			  -0.07513			 0.09338
	7.25			  10.25631			  -0.05788			 -0.00147
	7.50			  10.12805			  0.02122			 0.16369
	7.75			  10.28946			  -0.09744			 0.10159
	8.00			  10.30103			  0.10225			 0.03660
	8.25			  10.34249			  0.20244			 0.16817
	8.50			  10.32339			  0.23851			 0.20723
	8.75			  10.34987			  0.04126			 0.20417
	9.00			  10.26462			  0.19076			 0.20638
	9.25			  10.15965			  0.26273			 0.21038
	9.50			  10.10484			  0.26656			 0.01485
	9.75			  10.11198			  0.19930			 0.23983
	10.00			  10.11711			  0.25698			 0.20631
	10.25			  10.09343			  0.20209			 0.28006
	10.50			  10.09847			  0.17247			 0.22737
	10.75			  9.92891			  0.17473			 0.22783
	11.00			  9.89164			  0.21133			 0.19229
	11.25			  9.85127			  0.17561			 0.19259
	11.50			  9.85632			  0.07228			 0.17808
	11.75			  9.92798			  0.11636			 0.19056
	12.00			  9.89211			  0.20941			 0.13927
	12.25			  9.93481			  0.23276			 0.12520
	12.50			  9.88326			  0.18728			 0.11327
	12.75			  9.85725			  0.23764			 0.06660
	13.00			  10.02456			  0.37198			 0.00968
	13.25			  9.99956			  0.32354			 0.05193
	13.50			  9.84925			  0.40979			 0.06430
	13.75			  9.84102			  0.36344			 -0.03800
	14.00			  9.70290			  0.29705			 -0.03568
	14.25			  9.68411			  0.19303			 -0.14123
	14.50			  9.88745			  0.10957			 -0.11893
	14.75			  9.99102			  0.20836			 -0.01890
	15.00			  10.00678			  0.19913			 -0.08380
	15.25			  9.87782			  0.13100			 -0.06911
	15.50			  9.91198			  0.16271			 -0.04945
	15.75			  9.94125			  0.09266			 -0.09208
	16.00			  10.05895			  0.03551			 -0.08746
	16.25			  9.93201			  0.12124			 0.00582
	16.50			  10.06113			  0.11967			 0.05483
	16.75			  10.00686			  0.21882			 -0.06899
	17.00			  9.97534			  0.09998			 0.11396
	17.25			  10.04024			  0.03847			 0.03596
	17.50			  10.00507			  0.03429			 0.07736
	17.75			  9.97945			  0.16724			 0.16615
	18.00			  10.02627			  0.30019			 0.07554
	18.25			  9.98993			  0.09807			 0.32232
	18.50			  9.88334			  -0.00718			 0.36101
	18.75			  9.88590			  0.00467			 0.32395
	19.00			  9.94995			  -0.10807			 0.38225
	19.25			  10.03310			  -0.21087			 0.42545
	19.50			  10.05763			  -0.14326			 0.41039
	19.75			  10.13131			  -0.25896			 0.26705
	20.00			  10.07363			  -0.37013			 0.28974
	20.25			  10.08225			  -0.14866			 0.17403
	20.50			  9.96757			  -0.01049			 0.14854
	20.75			  9.82317			  -0.07670			 0.04281
	21.00			  9.75034			  -0.06834			 -0.05869
	21.25			  9.80609			  -0.07147			 -0.08759
	21.50			  9.84646			  -0.16522			 -0.13638
	21.75			  9.77247			  -0.21453			 0.06124
	22.00			  9.96509			  -0.04220			 0.01936
	22.25			  10.02270			  -0.08193			 0.04736
	22.50			  9.93155			  -0.16539			 0.03108
	22.75			  9.82713			  -0.37762			 -0.03007
	23.00			  9.79560			  -0.37902			 0.11129
	23.25			  9.69273			  -0.25234			 0.10233
	23.50			  9.79188			  -0.25251			 0.05782
	23.75			  9.89661			  -0.32117			 0.12295
	24.00			  9.94389			  -0.42118			 0.02793
	24.25			  9.93846			  -0.49994			 0.03044
	24.50			  9.96400			  -0.43181			 0.08876
	24.75			  10.02798			  -0.48391			 0.09194
	25.00			  10.02417			  -0.40184			 0.06476
	25.25			  10.08659			  -0.36403			 0.10230
	25.50			  10.11221			  -0.30392			 0.13877
	25.75			  10.00197			  -0.41055			 0.11589
	26.00			  10.03543			  -0.37640			 0.13054
	26.25			  9.97518			  -0.33197			 0.07492
	26.50			  10.05096			  -0.25792			 0.04055
	26.75			  9.83675			  -0.16400			 0.01483
	27.00			  9.96618			  -0.09970			 -0.02117
	27.25			  9.89560			  0.00049			 -0.07318
	27.50			  9.87464			  -0.10319			 0.01165
	27.75			  9.91198			  -0.01589			 0.12651
	28.00			  10.06967			  0.05520			 0.06541
	28.25			  10.13411			  0.16463			 0.01264
	28.50			  10.08535			  0.01234			 0.01745
	28.75			  10.00197			  -0.07566			 0.08888
	29.00			  10.04956			  -0.05771			 0.00680
	29.25			  10.04459			  -0.13525			 -0.03134
	29.50			  10.01198			  -0.18769			 0.04122
	29.75			  10.10197			  -0.25513			 0.00078
	30.00			  10.08815			  -0.18073			 -0.05118
	30.25			  10.03147			  -0.14971			 -0.04207
	30.50			  9.98225			  -0.19153			 -0.05338
	30.75			  10.00461			  -0.09552			 0.05911
	31.00			  9.99754			  -0.00021			 0.17868
	31.25			  9.84265			  0.01530			 0.08343
	31.50			  9.79980			  0.00641			 0.16217
	31.75			  9.80065			  -0.10301			 0.20735
	32.00			  9.86090			  -0.00108			 0.21369
	32.25			  9.88986			  -0.06050			 0.25788
	32.50			  9.93986			  -0.08036			 0.23238
	32.75			  9.93217			  -0.21313			 0.16160
	33.00			  9.92782			  -0.16243			 0.26917
	33.25			  10.15957			  -0.09343			 0.22270
	33.50			  10.13597			  -0.09900			 0.13408
	33.75			  10.08908			  -0.07461			 0.04968
	34.00			  10.08993			  -0.13194			 -0.03699
	34.25			  10.12215			  -0.06973			 -0.12028
	34.50			  10.19172			  -0.07949			 0.00816
	34.75			  10.15235			  -0.00439			 0.02023
	35.00			  10.37983			  -0.08907			 -0.06357
	35.25			  10.40274			  0.02663			 -0.08847
	35.50			  10.43084			  0.12978			 0.03991
	35.75			  10.28869			  0.25140			 0.11587
	36.00			  10.29296			  0.22701			 0.07400
	36.25			  10.23077			  0.00554			 0.30466
	36.50			  10.23822			  0.00049			 0.03694
	36.75			  10.35305			  -0.15651			 -0.08814
	37.00			  10.31765			  -0.27464			 -0.13049
	37.25			  10.27968			  -0.26750			 -0.12946
	37.50			  10.29202			  -0.21679			 -0.00253
	37.75			  10.24467			  -0.16243			 -0.02860
	38.00			  10.25577			  -0.22463			 -0.08757
	38.25			  10.26625			  -0.21679			 -0.12587
	38.50			  10.32603			  -0.24642			 0.00828
	38.75			  10.34233			  -0.38546			 -0.01697
	39.00			  10.35157			  -0.45516			 0.16330
	39.25			  10.23760			  -0.57243			 0.23004
	39.50			  10.19125			  -0.51162			 0.21328
	39.75			  10.13838			  -0.54106			 0.30510
	40.00			  10.18620			  -0.38686			 0.26521
	40.25			  10.29498			  -0.26750			 0.35411
	40.50			  10.18519			  -0.33284			 0.25891
	40.75			  10.24218			  -0.13385			 0.29080
	41.00			  10.21377			  -0.25722			 0.24135
	41.25			  10.11827			  -0.37605			 0.16638
	41.50			  10.11346			  -0.44035			 0.13215
	41.75			  10.21982			  -0.59229			 0.17265
	42.00			  10.15476			  -0.55831			 0.12003
	42.25			  10.19420			  -0.37361			 0.04890
	42.50			  10.20142			  -0.28719			 0.05124
	42.75			  10.19505			  -0.37466			 0.00425
	43.00			  10.15367			  -0.33998			 -0.06870
	43.25			  10.15802			  -0.26872			 -0.07329
	43.50			  10.11974			  -0.24101			 -0.09849
	43.75			  10.15010			  -0.13246			 -0.12451
	44.00			  10.12138			  -0.23091			 -0.07810
	44.25			  10.09048			  -0.07043			 -0.10578
	44.50			  10.02270			  0.03952			 -0.11759
	44.75			  10.14855			  -0.04673			 -0.01934
	45.00			  10.11664			  -0.07600			 -0.04796
	45.25			  10.21276			  -0.13560			 -0.08118
	45.50			  10.12797			  -0.11852			 -0.09357
	45.75			  10.10779			  -0.20041			 0.08348
	46.00			  9.87526			  -0.10197			 0.09136
	46.25			  9.85484			  -0.07444			 0.04980
	46.50			  9.84964			  -0.29259			 0.09012
	46.75			  9.82029			  -0.20181			 0.11444
	47.00			  9.94972			  -0.10232			 0.00450
	47.25			  9.99195			  0.02436			 -0.05440
	47.50			  9.97200			  0.03516			 0.00977
	47.75			  10.07689			  0.01547			 0.08258
	48.00			  10.03473			  0.13989			 0.11700
	48.25			  10.16625			  0.13588			 0.06228
	48.50			  10.05779			  0.15313			 0.09575
	48.75			  10.04630			  0.15574			 0.14399
	49.00			  10.05686			  0.11253			 0.06014
	49.25			  10.10476			  0.07681			 -0.01816
	49.50			  10.08395			  0.12438			 -0.08835
	49.75			  10.01656			  0.17683			 -0.05780
	50.00			  10.10515			  0.19477			 -0.14603
	50.25			  10.02937			  0.04475			 -0.16256
	50.50			  10.05003			  -0.04342			 -0.03793
	50.75			  10.10763			  -0.05980			 -0.05090
	51.00			  10.12207			  -0.08559			 -0.19185
	51.25			  10.05732			  -0.03453			 -0.19999
	51.50			  10.04428			  0.07036			 -0.22349
	51.75			  9.90011			  -0.03610			 -0.07253
	52.00			  9.86214			  -0.17132			 -0.06357
	52.25			  10.02658			  -0.13438			 -0.05902
	52.50			  10.05003			  -0.09343			 -0.07244
	52.75			  9.80593			  -0.11521			 0.06292
	53.00			  9.95686			  -0.04325			 0.10095
	53.25			  10.00849			  -0.13542			 0.14267
	53.50			  9.96959			  -0.12793			 0.09175
	53.75			  9.87643			  0.02349			 0.07782
	54.00			  9.91532			  0.01809			 0.16780
	54.25			  9.81672			  -0.01990			 0.10879
	54.50			  9.72720			  -0.10092			 0.19679
	54.75			  9.72915			  -0.10406			 0.32441
	55.00			  9.67348			  -0.13490			 0.28944
	55.25			  9.74762			  -0.04934			 0.23551
	55.50			  9.74382			  -0.03070			 0.24349
	55.75			  9.78862			  -0.12985			 0.21608
	56.00			  9.84421			  -0.14884			 0.25648
	56.25			  9.83994			  -0.23370			 0.15633
	56.50			  9.81664			  -0.18055			 -0.09709
	56.75			  9.91315			  -0.17393			 -0.01246
	57.00			  9.89793			  -0.16818			 0.04044
	57.25			  10.01214			  -0.27708			 0.09320
	57.50			  10.03892			  -0.32779			 0.02704
	57.75			  9.86540			  -0.38076			 0.00025
	58.00			  9.81587			  -0.46021			 -0.15530
	58.25			  9.85531			  -0.49001			 -0.20829
	58.50			  9.78567			  -0.41073			 -0.17523
	58.75			  9.89110			  -0.49088			 -0.17541
	59.00			  9.86261			  -0.53653			 -0.01904
	59.25			  9.92511			  -0.56006			 0.04492
	59.50			  9.97006			  -0.55100			 0.18557
	59.75			  10.01672			  -0.64822			 0.00747
	60.00			  10.04676			  -0.77804			 -0.18512
	60.25			  10.13224			  -0.63463			 -0.12693
	60.50			  10.08698			  -0.58654			 -0.00740
	60.75			  10.07277			  -0.64056			 0.10865
	61.00			  10.03535			  -0.64892			 0.12311
	61.25			  10.07479			  -0.58149			 0.16208
	61.50			  9.95406			  -0.43739			 0.05821
	61.75			  9.82511			  -0.42188			 -0.00911
	62.00			  9.86804			  -0.59926			 -0.05722
	62.25			  9.85585			  -0.61041			 -0.11610
	62.50			  9.89529			  -0.58515			 -0.05205
	62.75			  9.77091			  -0.50743			 0.05166
	63.00			  9.91385			  -0.54124			 -0.07309
	63.25			  10.08147			  -0.74615			 -0.08288
	63.50			  10.01478			  -0.90471			 -0.14222
	63.75			  9.94995			  -0.81515			 -0.10265
	64.00			  9.87938			  -0.69579			 -0.05750
	64.25			  9.75399			  -0.64561			 -0.18597
	64.50			  9.78939			  -0.65101			 -0.15629
	64.75			  9.79995			  -0.60832			 -0.22912
	65.00			  9.83171			  -0.67837			 -0.28915
	65.25			  9.80570			  -0.64805			 -0.32745
	65.50			  9.73031			  -0.72402			 -0.23972
	65.75			  9.70756			  -0.71566			 -0.18659
	66.00			  9.86858			  -0.74720			 -0.09649
	66.25			  9.89669			  -0.66408			 -0.05446
	66.50			  9.98955			  -0.67419			 -0.02828
	66.75			  10.04715			  -0.70050			 -0.04938
	67.00			  10.02588			  -0.57121			 -0.05198
	67.25			  10.05166			  -0.55849			 -0.08060
	67.50			  10.06144			  -0.54786			 -0.09998
	67.75			  10.09521			  -0.54612			 -0.00283
	68.00			  10.02961			  -0.56807			 -0.06865
	68.25			  10.08908			  -0.54699			 -0.17808
	68.50			  10.21532			  -0.40097			 -0.23517
	68.75			  10.11967			  -0.53810			 -0.18951
	69.00			  10.05010			  -0.70764			 -0.19298
	69.25			  9.93667			  -0.66722			 -0.20664
	69.50			  10.08962			  -0.61425			 -0.16785
	69.75			  10.30825			  -0.61825			 -0.16620
	70.00			  10.29032			  -0.61233			 -0.08132
	70.25			  10.32883			  -0.46858			 -0.00085
	70.50			  10.14987			  -0.57260			 0.06143
	70.75			  10.06190			  -0.72071			 0.02644
	71.00			  9.94607			  -0.66164			 0.03892
	71.25			  10.15158			  -0.66077			 0.06187
	71.50			  10.11586			  -0.60832			 0.02492
	71.75			  10.15336			  -0.64352			 -0.02619
	72.00			  10.06043			  -0.70032			 0.00503
	72.25			  10.15810			  -0.67140			 -0.01609
	72.50			  10.14599			  -0.82055			 0.09637
	72.75			  10.07759			  -0.85331			 0.03481
	73.00			  10.08939			  -0.79110			 0.05462
	73.25			  10.08621			  -0.71670			 0.12893
	73.50			  10.06641			  -0.55152			 0.12980
	73.75			  10.01291			  -0.56197			 -0.08550
	74.00			  10.01470			  -0.40341			 0.01522
	74.25			  10.13799			  -0.33580			 -0.01317
	74.50			  10.08124			  -0.35654			 -0.02481
	74.75			  10.07634			  -0.38755			 0.02428
	75.00			  10.10336			  -0.30095			 0.07623
	75.25			  10.13147			  -0.23160			 0.05044
	75.50			  10.12184			  -0.32709			 -0.02035
	75.75			  10.08007			  -0.45429			 -0.02947
	76.00			  10.08388			  -0.41334			 0.12858
	76.25			  10.14405			  -0.39487			 0.09658
	76.50			  10.01190			  -0.49768			 0.03927
	76.75			  9.96245			  -0.35758			 0.11973
	77.00			  9.80647			  -0.34800			 0.20535
	77.25			  9.75298			  -0.54995			 0.21137
	77.50			  9.79685			  -0.43669			 0.20776
	77.75			  9.75283			  -0.45743			 0.13139
	78.00			  9.72076			  -0.45586			 0.13477
	78.25			  9.66012			  -0.53165			 0.06398
	78.50			  9.57596			  -0.41125			 0.11017
	78.75			  9.54041			  -0.48409			 0.01726
	79.00			  9.57216			  -0.28667			 0.03699
	79.25			  9.52146			  -0.35445			 -0.01584
	79.50			  9.53590			  -0.40411			 -0.07293
	79.75			  9.62697			  -0.34208			 -0.07506
	80.00			  9.58520			  -0.25269			 -0.15447
	80.25			  9.55399			  -0.23073			 -0.13771
	80.50			  9.48645			  -0.28876			 -0.14971
	80.75			  9.57589			  -0.43495			 -0.00400
	81.00			  9.54312			  -0.58358			 0.04688
	81.25			  9.43179			  -0.41613			 0.07835
	81.50			  9.48955			  -0.48949			 -0.06587
	81.75			  9.44584			  -0.71426			 -0.13934
	82.00			  9.56805			  -0.74493			 -0.03127
	82.25			  9.45399			  -0.70520			 -0.08932
	82.50			  9.38831			  -0.63289			 -0.13026
	82.75			  9.48769			  -0.69544			 -0.12934
	83.00			  9.46595			  -0.63620			 -0.24128
	83.25			  9.56603			  -0.63847			 -0.30834
	83.50			  9.51595			  -0.52259			 -0.21512
	83.75			  9.62332			  -0.53096			 -0.25829
	84.00			  9.70050			  -0.45534			 -0.17286
	84.25			  9.81121			  -0.50831			 -0.11336
	84.50			  9.77192			  -0.32169			 -0.06801
	84.75			  9.82309			  -0.29311			 -0.07332
	85.00			  9.77441			  -0.29660			 -0.13757
	85.25			  9.70694			  -0.24816			 -0.15268
	85.50			  9.74397			  -0.34051			 -0.10707
	85.75			  9.72915			  -0.33127			 -0.12369
	86.00			  9.71913			  -0.28893			 -0.09017
	86.25			  9.82076			  -0.33528			 -0.02246
	86.50			  9.74529			  -0.33371			 0.04265
	86.75			  9.57969			  -0.32308			 0.02393
	87.00			  9.60981			  -0.52660			 0.11279
	87.25			  9.75826			  -0.55918			 0.13072
	87.50			  9.79786			  -0.60728			 0.26751
	87.75			  9.72037			  -0.56128			 0.20633
	88.00			  9.81703			  -0.42571			 0.12948
	88.25			  9.84622			  -0.41125			 0.15764
	88.50			  9.67922			  -0.56441			 0.19470
	88.75			  9.80997			  -0.56772			 0.20300
	89.00			  9.78885			  -0.61198			 0.19564
	89.25			  9.91602			  -0.59491			 0.12012
	89.50			  9.93551			  -0.53636			 0.08295
	89.75			  9.98784			  -0.57574			 0.08134
	90.00			  10.01361			  -0.47450			 0.22629
	90.25			  9.99187			  -0.44052			 0.18187
	90.50			  10.03069			  -0.51737			 0.18433
	90.75			  10.07270			  -0.45551			 0.10288
	91.00			  10.05096			  -0.36734			 0.06780
	91.25			  9.98652			  -0.35096			 0.15440
	91.50			  10.12394			  -0.41630			 0.20907
	91.75			  10.13605			  -0.37048			 0.06906
	92.00			  10.01773			  -0.22673			 0.28701
	92.25			  10.02798			  -0.28126			 0.22686
	92.50			  9.99809			  -0.36299			 0.23652
	92.75			  10.04366			  -0.29433			 0.22001
	93.00			  9.96462			  -0.38721			 0.09872
	93.25			  10.10026			  -0.48025			 -0.01237
	93.50			  10.17805			  -0.48043			 0.01205
	93.75			  10.14894			  -0.38093			 0.22675
	94.00			  10.21788			  -0.24607			 0.23532
	94.25			  10.21136			  -0.19432			 0.21585
	94.50			  10.21889			  -0.11817			 0.27935
	94.75			  10.15181			  -0.29695			 0.23339
	95.00			  10.08551			  -0.33493			 0.15242
	95.25			  10.09684			  -0.41857			 -0.04357
	95.50			  10.07239			  -0.30078			 0.03258
	95.75			  10.02208			  -0.38895			 -0.02738
	96.00			  10.06159			  -0.29259			 -0.02035
	96.25			  9.87448			  -0.24520			 0.01697
	96.50			  9.89902			  -0.33528			 0.02430
	96.75			  9.86750			  -0.26140			 -0.01734
	97.00			  9.80725			  -0.12305			 -0.12766
	97.25			  9.87231			  -0.16731			 -0.08808
	97.50			  9.85492			  -0.19501			 -0.06171
	97.75			  9.96284			  -0.24955			 -0.10525
	98.00			  9.92573			  -0.16923			 -0.09014
	98.25			  10.06765			  -0.04691			 0.02871
	98.50			  9.98776			  -0.12950			 0.08237
	98.75			  9.89646			  -0.32674			 0.09106
	99.00			  9.86268			  -0.23126			 -0.00324
	99.25			  9.72519			  -0.12863			 -0.08610
	99.50			  9.76587			  -0.00753			 -0.03527
	99.75			  9.64266			  -0.10005			 -0.02734
	100.00			  9.62705			  -0.09813			 0.01000
	100.25			  9.68924			  -0.08628			 -0.00846
	100.50			  9.79537			  0.04562			 0.03520
	100.75			  9.87045			  0.03691			 -0.08033
	101.00			  9.83970			  0.17160			 -0.12104
	101.25			  9.67457			  0.08465			 -0.16114
	101.50			  9.84226			  -0.04569			 -0.13695
	101.75			  9.89358			  0.09615			 0.02458
	102.00			  9.83512			  0.03830			 -0.10569
	102.25			  9.81307			  0.07419			 -0.08923
	102.50			  10.00717			  0.01321			 -0.00269
	102.75			  9.99366			  -0.04133			 0.07115
	103.00			  9.81299			  -0.00334			 -0.01000
	103.25			  9.84358			  -0.03645			 -0.10334
	103.50			  9.78885			  -0.00979			 -0.09819
	103.75			  9.76991			  0.11166			 -0.10279
	104.00			  9.69607			  0.05642			 0.04451
	104.25			  9.70143			  -0.05684			 0.07984
	104.50			  9.74328			  0.08221			 0.13412
	104.75			  9.84498			  0.07733			 0.14447
	105.00			  9.81059			  0.22056			 0.08320
	105.25			  9.80461			  0.17961			 0.03515
	105.50			  9.81944			  0.24983			 -0.07679
	105.75			  9.95181			  0.25645			 0.05115
	106.00			  9.95220			  0.17142			 0.01529
	106.25			  10.18030			  0.17926			 0.01756
	106.50			  10.31803			  -0.00404			 0.04605
	106.75			  10.27238			  -0.15093			 -0.02460
	107.00			  10.21501			  -0.16957			 -0.12748
	107.25			  10.22308			  -0.20059			 -0.12911
	107.50			  10.27774			  -0.23387			 -0.02688
	107.75			  10.30049			  -0.22568			 -0.07244
	108.00			  10.27137			  -0.29085			 -0.15383
	108.25			  10.18706			  -0.42833			 -0.12971
	108.50			  10.18147			  -0.37274			 -0.18268
	108.75			  10.14210			  -0.09413			 -0.22096
	109.00			  10.07487			  -0.15372			 -0.15183
	109.25			  10.01579			  -0.23788			 -0.11109
	109.50			  10.02184			  -0.13490			 -0.10904
	109.75			  9.97526			  -0.08925			 -0.23790
	110.00			  9.99382			  -0.14013			 -0.22077
	110.25			  10.11951			  -0.04412			 -0.33582
	110.50			  10.04366			  0.01478			 -0.13300
	110.75			  10.00197			  0.08448			 0.04251
	111.00			  10.11695			  0.17055			 0.12906
	111.25			  9.95119			  0.22509			 0.13251
	111.50			  9.91618			  0.19965			 0.08490
	111.75			  9.97728			  0.17752			 0.10113
	112.00			  9.93209			  0.17961			 0.02841
	112.25			  9.93823			  0.06165			 -0.02483
	112.50			  9.92262			  -0.01450			 0.02437
	112.75			  10.01144			  0.06618			 0.06559
	113.00			  9.88295			  0.07716			 0.11047
	113.25			  9.95228			  0.10957			 0.02628
	113.50			  9.93784			  0.05416			 -0.07826
	113.75			  9.95049			  0.04945			 0.12858
	114.00			  9.87053			  0.09441			 0.13824
	114.25			  9.81990			  -0.10022			 0.14978
	114.50			  9.80399			  -0.05283			 0.02214
	114.75			  9.79374			  -0.14082			 -0.04777
	115.00			  9.80313			  -0.05178			 0.09941
	115.25			  9.76191			  -0.10963			 0.01791
	115.50			  9.75756			  -0.13002			 0.06504
	115.75			  9.70275			  -0.07548			 0.14605
	116.00			  9.64988			  -0.10963			 0.12136
	116.25			  9.74234			  -0.07182			 0.18231
	116.50			  9.74654			  0.04266			 0.07626
	116.75			  9.74770			  -0.03453			 0.06414
	117.00			  9.68551			  -0.12828			 -0.06019
	117.25			  9.71036			  0.03726			 -0.16231
	117.50			  9.63404			  -0.08750			 -0.14495
	117.75			  9.73924			  -0.19623			 -0.16484
	118.00			  9.67876			  -0.00596			 -0.11424
	118.25			  9.80826			  0.03813			 -0.07256
	118.50			  9.88209			  -0.16016			 0.03763
	118.75			  9.83039			  -0.21540			 0.00561
	119.00			  9.83217			  -0.23091			 0.06511
	119.25			  9.81369			  -0.30183			 -0.03180
	119.50			  9.79615			  -0.26454			 -0.01559
	119.75			  9.77984			  -0.28179			 -0.05497
	120.00			  9.66509			  -0.20982			 0.04609
	120.25			  9.60492			  -0.26471			 -0.03044
	120.50			  9.76711			  -0.21192			 -0.02359
	120.75			  9.68443			  -0.22132			 -0.06037
	121.00			  9.63808			  -0.15441			 0.06759
	121.25			  9.74739			  -0.23823			 0.18523
	121.50			  9.75446			  -0.19066			 0.03405
	121.75			  9.62954			  -0.16975			 0.13962
	122.00			  9.61936			  -0.30914			 0.08244
	122.25			  9.59825			  -0.32326			 0.05897
	122.50			  9.59592			  -0.37849			 0.03490
	122.75			  9.62682			  -0.43286			 0.02101
	123.00			  9.60143			  -0.49140			 -0.09346
	123.25			  9.69980			  -0.52573			 -0.09858
	123.50			  9.66742			  -0.51876			 0.00947
	123.75			  9.69825			  -0.44662			 -0.13371
	124.00			  9.62503			  -0.46997			 0.03179
	124.25			  9.59405			  -0.51301			 0.11660
	124.50			  9.65617			  -0.53549			 0.18914
	124.75			  9.68839			  -0.58602			 0.10320
	125.00			  9.72845			  -0.48391			 0.00402
	125.25			  9.79677			  -0.50987			 0.13097
	125.50			  9.88559			  -0.41265			 0.09276
	125.75			  9.87456			  -0.39069			 0.16723
	126.00			  9.89638			  -0.33789			 0.14162
	126.25			  9.71991			  -0.28458			 0.00733
	126.50			  9.75756			  -0.15372			 0.13146
	126.75			  9.81222			  -0.10266			 0.16829
	127.00			  9.86975			  -0.22585			 0.10017
	127.25			  9.94917			  -0.26576			 0.10224
	127.50			  9.85158			  -0.35532			 0.05685
	127.75			  9.89056			  -0.39313			 0.10837
	128.00			  9.92798			  -0.54873			 0.17615
	128.25			  9.88147			  -0.57853			 0.24381
	128.50			  9.91983			  -0.49820			 0.24137
	128.75			  9.89444			  -0.70311			 0.05522
	129.00			  10.00554			  -0.61634			 -0.02676
	129.25			  10.12386			  -0.58828			 -0.02568
	129.50			  10.09933			  -0.68534			 -0.01347
	129.75			  10.06136			  -0.70398			 -0.02049
	130.00			  10.08201			  -0.56180			 0.08945
	130.25			  10.22743			  -0.46248			 -0.11677
	130.50			  10.18807			  -0.40846			 -0.20218
	130.75			  10.13473			  -0.33162			 -0.15371
	131.00			  10.13884			  -0.25983			 -0.25133
	131.25			  10.15204			  -0.29991			 -0.28731
	131.50			  10.25965			  -0.37222			 -0.20259
	131.75			  10.25856			  -0.35114			 -0.11199
	132.00			  10.23512			  -0.27029			 -0.11534
	132.25			  10.21415			  -0.30305			 -0.04299
	132.50			  10.17526			  -0.34434			 -0.12162
	132.75			  10.15934			  -0.33737			 -0.13422
	133.00			  10.17875			  -0.39766			 -0.08488
	133.25			  10.14172			  -0.41055			 -0.14787
	133.50			  10.05779			  -0.31420			 -0.23425
	133.75			  9.99242			  -0.19972			 -0.20799
	134.00			  10.17844			  -0.04987			 -0.12796
	134.25			  10.29187			  -0.04865			 -0.17551
	134.50			  10.25949			  -0.06050			 -0.12224
	134.75			  10.29552			  -0.06363			 -0.23305
	135.00			  10.43612			  -0.25164			 -0.22608
	135.25			  10.52541			  -0.29033			 -0.28338
	135.50			  10.52075			  -0.26070			 -0.24078
	135.75			  10.37494			  -0.32413			 -0.32460
	136.00			  10.35934			  -0.30409			 -0.16293
	136.25			  10.36011			  -0.35096			 -0.15541
	136.50			  10.46454			  -0.41944			 -0.02598
	136.75			  10.33737			  -0.59229			 -0.05768
	137.00			  10.28178			  -0.60431			 -0.16900
	137.25			  10.20227			  -0.68168			 -0.06920
	137.50			  10.19342			  -0.44784			 0.04998
	137.75			  10.11718			  -0.37414			 0.04839
	138.00			  10.21175			  -0.44418			 -0.02104
	138.25			  10.15158			  -0.47973			 0.07888
	138.50			  10.22526			  -0.50325			 0.08246
	138.75			  10.16229			  -0.52974			 0.03209
	139.00			  10.11540			  -0.56825			 0.08108
	139.25			  10.05026			  -0.34713			 0.04529
	139.50			  10.02697			  -0.52869			 0.06492
	139.75			  10.04149			  -0.52172			 0.11325
	140.00			  10.08131			  -0.50465			 0.03642
	140.25			  10.05624			  -0.64003			 0.27935
	140.50			  10.11408			  -0.56685			 0.19585
	140.75			  10.25670			  -0.55100			 0.20024
	141.00			  10.16268			  -0.63934			 0.07405
	141.25			  10.19474			  -0.56825			 0.09865
	141.50			  10.25608			  -0.59508			 0.05589
	141.75			  10.25585			  -0.42066			 0.11920
	142.00			  10.33791			  -0.38285			 -0.07596
	142.25			  10.19653			  -0.39278			 -0.12856
	142.50			  10.28752			  -0.47206			 -0.00906
	142.75			  10.22394			  -0.38163			 -0.02987
	143.00			  10.20002			  -0.15302			 -0.08513
	143.25			  10.18543			  -0.26854			 -0.01977
	143.50			  10.05430			  -0.27970			 -0.09587
	143.75			  10.07836			  -0.26611			 -0.12829
	144.00			  9.92379			  -0.35689			 -0.01101
	144.25			  9.99964			  -0.34713			 0.05350
	144.50			  9.93271			  -0.24310			 0.09205
	144.75			  9.91121			  -0.29956			 0.11175
	145.00			  9.89545			  -0.25792			 0.16318
	145.25			  9.82200			  -0.18386			 0.20633
	145.50			  9.98225			  -0.00474			 0.13546
	145.75			  9.94995			  -0.06520			 0.11516
	146.00			  9.84087			  -0.10719			 0.06499
	146.25			  10.01454			  -0.12932			 -0.04828
	146.50			  9.93722			  -0.05753			 -0.17351
	146.75			  9.94723			  0.04179			 -0.05996
	147.00			  9.83349			  0.00641			 0.00023
	147.25			  9.85857			  -0.17602			 -0.06288
	147.50			  9.80158			  -0.22446			 -0.09998
	147.75			  9.75523			  -0.30740			 -0.26285
	148.00			  9.74941			  -0.20686			 -0.37609
	148.25			  9.83326			  -0.20460			 -0.42384
	148.50			  9.82456			  -0.08960			 -0.43116
	148.75			  9.78272			  -0.12706			 -0.40727
	149.00			  9.81998			  -0.20564			 -0.35614
	149.25			  9.79754			  -0.32221			 -0.20907
	149.50			  9.80150			  -0.17741			 -0.38308
	149.75			  9.76276			  -0.28858			 -0.26393
	150.00			  9.84747			  -0.31437			 -0.19677
	150.25			  9.71913			  -0.34922			 -0.14445
	150.50			  9.72705			  -0.31681			 -0.10497
	150.75			  9.64786			  -0.18003			 -0.11304
	151.00			  9.62690			  -0.15197			 0.01837
	151.25			  9.64599			  -0.18682			 0.17169
	151.50			  9.67798			  -0.22098			 0.28142
	151.75			  9.66354			  -0.15407			 0.31901
	152.00			  9.71152			  -0.15929			 0.33919
	152.25			  9.81470			  -0.34939			 0.21716
	152.50			  9.75694			  -0.41003			 0.27730
	152.75			  9.83326			  -0.39958			 0.33397
	153.00			  9.82891			  -0.41718			 0.19840
	153.25			  9.89226			  -0.47659			 0.22068
	153.50			  9.89250			  -0.21418			 0.10819
	153.75			  9.94242			  -0.13159			 0.01110
	154.00			  9.85166			  -0.16975			 0.16111
	154.25			  9.96905			  -0.24467			 0.22877
	154.50			  9.97899			  -0.12706			 0.29949
	154.75			  9.99506			  0.02088			 0.34418
	155.00			  10.10934			  0.05816			 0.24213
	155.25			  10.08147			  0.08552			 0.10212
	155.50			  10.09940			  0.02419			 0.07890
	155.75			  10.01944			  0.01600			 0.14902
	156.00			  10.08884			  0.01025			 0.09971
	156.25			  10.04801			  0.09197			 0.16102
	156.50			  10.06788			  0.09667			 0.27595
	156.75			  10.03419			  0.10800			 0.22355
	157.00			  10.03038			  -0.07827			 0.14222
	157.25			  10.03706			  0.08273			 0.00611
	157.50			  10.10748			  0.02436			 0.17008
	157.75			  10.12106			  -0.07827			 0.13805
	158.00			  10.01315			  -0.01659			 0.21176
	158.25			  10.01788			  0.06844			 0.22698
	158.50			  10.01354			  0.00868			 0.11619
	158.75			  9.92689			  0.06252			 0.15302
	159.00			  9.93691			  0.10138			 0.18015
	159.25			  10.05554			  0.14424			 0.22183
	159.50			  10.03077			  0.08343			 0.27455
	159.75			  9.96470			  0.18693			 0.28002
	160.00			  9.91866			  0.23938			 0.22560
	160.25			  10.00049			  0.23886			 0.20574
	160.50			  10.01781			  0.31204			 0.20997
	160.75			  10.03512			  0.28991			 0.01570
	161.00			  10.09180			  0.15382			 -0.15700
	161.25			  9.98069			  0.12089			 -0.09920
	161.50			  10.01059			  0.23572			 0.02982
	161.75			  9.98815			  0.20836			 0.08672
	162.00			  10.01913			  0.13936			 0.05400
	162.25			  10.09133			  0.08587			 0.19928
	162.50			  10.16710			  0.10138			 0.18006
	162.75			  10.16804			  0.14686			 0.13711
	163.00			  10.09839			  0.05503			 0.15194
	163.25			  10.12402			  0.15435			 0.24965
	163.50			  10.22875			  0.15051			 0.11656
	163.75			  10.16998			  -0.03994			 0.11205
	164.00			  9.97720			  -0.12584			 0.06469
	164.25			  9.82914			  -0.08663			 0.07216
	164.50			  9.92992			  -0.02931			 0.11385
	164.75			  10.00383			  0.10695			 0.03770
	165.00			  10.04102			  -0.00439			 0.06690
	165.25			  10.01641			  0.07663			 0.14097
	165.50			  9.96897			  0.21202			 0.03802
	165.75			  10.05530			  0.09580			 0.02568
	166.00			  10.05973			  0.06653			 -0.00573