--------------TurbSim v2.00.* User Time Series Input File-----------------------
     Time series input from low-res turbsim run
--------------------------------------------------------------------------------
          3 nComp - Number of velocity components in the file
          1 nPoints - Number of time series points contained in this file (-)
          1 RefPtID - Index of the reference point (1-nPoints)
     Pointyi Pointzi ! nPoints listed in order of increasing height
       (m)     (m)
       -3.80959   94.00000
--------Time Series-------------------------------------------------------------
Elapsed Time         Point01u             Point01v           Point01w
         (s)            (m/s)                (m/s)              (m/s)
	0.00			  9.51962			  0.01192			 -0.18806
	0.25			  9.48124			  0.16174			 -0.16636
	0.50			  9.53344			  0.08736			 -0.11784
	0.75			  9.44072			  0.12026			 -0.07168
	1.00			  9.52097			  0.19132			 -0.03331
	1.25			  9.47504			  0.13006			 -0.11035
	1.50			  9.43421			  0.12621			 -0.09979
	1.75			  9.62481			  0.37789			 0.02620
	2.00			  9.62727			  0.32853			 -0.00319
	2.25			  9.58802			  0.30001			 -0.00250
	2.50			  9.54266			  0.33571			 0.00211
	2.75			  9.40521			  0.28373			 -0.04142
	3.00			  9.51525			  0.20269			 0.00563
	3.25			  9.53376			  0.09646			 0.16203
	3.50			  9.59478			  0.16437			 0.17186
	3.75			  9.51993			  0.27673			 0.13028
	4.00			  9.50492			  0.16192			 0.02222
	4.25			  9.47361			  0.11501			 0.14121
	4.50			  9.56069			  0.14441			 0.19761
	4.75			  9.68424			  0.22142			 0.18762
	5.00			  9.68472			  0.31121			 0.14031
	5.25			  9.72929			  0.37246			 0.14647
	5.50			  9.72381			  0.37596			 0.12716
	5.75			  9.74224			  0.36826			 0.08668
	6.00			  9.62457			  0.28460			 0.17994
	6.25			  9.57905			  0.24872			 0.12547
	6.50			  9.47520			  0.27953			 0.08107
	6.75			  9.47028			  0.21407			 0.12079
	7.00			  9.45900			  0.20217			 0.08217
	7.25			  9.59565			  0.24942			 0.17167
	7.50			  9.57229			  0.13776			 0.22276
	7.75			  9.62425			  0.15176			 0.20288
	8.00			  9.64046			  0.07406			 0.16178
	8.25			  9.63792			  0.14931			 0.25247
	8.50			  9.63689			  0.14616			 0.07706
	8.75			  9.56999			  0.09873			 0.04329
	9.00			  9.50754			  0.09278			 0.13857
	9.25			  9.64618			  0.23140			 0.16166
	9.50			  9.82900			  0.22090			 0.00902
	9.75			  9.86499			  0.24067			 -0.04195
	10.00			  9.84600			  0.21775			 0.10031
	10.25			  9.85943			  0.09891			 0.19946
	10.50			  9.73676			  0.14161			 0.34743
	10.75			  9.76297			  0.17627			 0.35682
	11.00			  9.81406			  0.35636			 0.19809
	11.25			  9.79245			  0.42864			 0.11523
	11.50			  9.87222			  0.44562			 0.14455
	11.75			  9.81327			  0.30631			 0.22345
	12.00			  9.78029			  0.17662			 0.36197
	12.25			  9.84020			  0.16227			 0.24569
	12.50			  9.92140			  0.12761			 0.23902
	12.75			  9.84362			  0.16244			 0.23641
	13.00			  9.87452			  0.08911			 0.29559
	13.25			  9.86737			  0.07633			 0.18088
	13.50			  9.93133			  0.23735			 0.25795
	13.75			  9.83440			  0.34971			 0.25270
	14.00			  9.88175			  0.33098			 0.16824
	14.25			  9.85403			  0.31681			 0.08464
	14.50			  9.81764			  0.31803			 0.11582
	14.75			  9.86586			  0.31453			 0.10606
	15.00			  9.97646			  0.49988			 0.08295
	15.25			  10.05011			  0.32258			 0.06394
	15.50			  10.07490			  0.22667			 -0.01469
	15.75			  9.94253			  0.08176			 -0.03317
	16.00			  9.90416			  0.05288			 -0.09993
	16.25			  9.89717			  0.07948			 -0.12149
	16.50			  9.86864			  0.02505			 -0.08733
	16.75			  9.82383			  0.03398			 0.02994
	17.00			  9.89296			  0.04360			 -0.01285
	17.25			  9.87039			  -0.09589			 -0.04096
	17.50			  9.82256			  0.05813			 -0.10469
	17.75			  9.83154			  0.06775			 -0.17351
	18.00			  10.04367			  0.09891			 -0.27584
	18.25			  10.08642			  0.11256			 -0.19548
	18.50			  10.12185			  0.01192			 -0.16680
	18.75			  10.02159			  0.08088			 -0.14501
	19.00			  10.01380			  -0.01975			 -0.15136
	19.25			  9.95302			  0.04903			 -0.02926
	19.50			  9.85641			  0.03730			 0.12574
	19.75			  9.80826			  0.11186			 0.08964
	20.00			  9.72476			  0.14179			 0.13223
	20.25			  9.73827			  0.07983			 0.06966
	20.50			  9.64896			  0.17452			 0.01848
	20.75			  9.82105			  0.29038			 0.06650
	21.00			  9.83821			  0.37194			 0.02570
	21.25			  9.80731			  0.43985			 -0.22902
	21.50			  9.81931			  0.34446			 -0.18032
	21.75			  9.93316			  0.20620			 -0.23275
	22.00			  9.95906			  0.19587			 -0.17477
	22.25			  9.85736			  0.27778			 -0.27516
	22.50			  9.76679			  0.31751			 -0.22913
	22.75			  9.74756			  0.24960			 -0.19983
	23.00			  9.79515			  0.30578			 -0.15454
	23.25			  9.85299			  0.16822			 -0.04426
	23.50			  9.85569			  0.10958			 -0.07322
	23.75			  9.82614			  0.00772			 0.00808
	24.00			  9.98242			  0.12079			 0.05328
	24.25			  10.00816			  0.32258			 0.07399
	24.50			  10.00538			  0.21232			 0.09287
	24.75			  10.04717			  0.28198			 0.07491
	25.00			  10.05527			  0.40869			 0.12489
	25.25			  10.15157			  0.49270			 0.05718
	25.50			  10.14172			  0.43547			 0.01695
	25.75			  10.14331			  0.37999			 0.04332
	26.00			  10.19821			  0.22125			 -0.01565
	26.25			  10.24421			  0.29563			 -0.10167
	26.50			  10.35250			  0.34884			 -0.25225
	26.75			  10.30006			  0.48535			 -0.16607
	27.00			  10.29220			  0.38349			 -0.27358
	27.25			  10.23046			  0.26080			 -0.20822
	27.50			  10.19852			  0.23052			 -0.08955
	27.75			  10.15935			  0.24382			 0.03610
	28.00			  10.05710			  0.18659			 -0.04176
	28.25			  9.95858			  0.05533			 -0.21963
	28.50			  9.95366			  0.17557			 -0.16123
	28.75			  9.75972			  0.23402			 -0.16105
	29.00			  9.83885			  0.30368			 -0.24425
	29.25			  9.94365			  0.36214			 -0.20815
	29.50			  9.92895			  0.44492			 -0.29882
	29.75			  9.94579			  0.51545			 -0.19346
	30.00			  9.97717			  0.44912			 -0.06158
	30.25			  10.09762			  0.26745			 -0.13381
	30.50			  10.21839			  0.20357			 0.00666
	30.75			  10.41177			  0.25520			 0.06680
	31.00			  10.33311			  0.27795			 0.02348
	31.25			  10.32509			  0.30561			 0.01530
	31.50			  10.33494			  0.31173			 -0.01821
	31.75			  10.34694			  0.33133			 0.12105
	32.00			  10.27480			  0.38629			 0.08162
	32.25			  10.32747			  0.26955			 0.14109
	32.50			  10.39969			  0.19167			 0.02847
	32.75			  10.32930			  0.17854			 -0.00126
	33.00			  10.25922			  0.10626			 -0.02662
	33.25			  10.33415			  -0.10761			 -0.07400
	33.50			  10.31937			  -0.02396			 -0.14921
	33.75			  10.31826			  -0.08644			 -0.19679
	34.00			  10.34360			  -0.13019			 -0.13809
	34.25			  10.30705			  -0.07209			 -0.15308
	34.50			  10.33907			  -0.06001			 -0.12119
	34.75			  10.34749			  -0.04618			 -0.12893
	35.00			  10.36275			  -0.02781			 -0.12914
	35.25			  10.34972			  0.00230			 -0.03072
	35.50			  10.33057			  0.03643			 -0.12078
	35.75			  10.26248			  0.04675			 -0.15821
	36.00			  10.24468			  -0.05983			 -0.21633
	36.25			  10.24747			  0.11641			 -0.29064
	36.50			  10.27257			  0.39382			 -0.24943
	36.75			  10.21378			  0.37929			 -0.20868
	37.00			  10.21934			  0.46785			 -0.25507
	37.25			  10.29156			  0.47397			 -0.16050
	37.50			  10.21386			  0.58091			 -0.18203
	37.75			  10.22856			  0.61994			 -0.03734
	38.00			  10.38666			  0.46855			 0.03044
	38.25			  10.42615			  0.27900			 0.02247
	38.50			  10.38793			  0.22300			 -0.03494
	38.75			  10.29434			  0.19482			 -0.03840
	39.00			  10.33105			  0.21530			 -0.04816
	39.25			  10.30491			  0.23857			 0.07864
	39.50			  10.34503			  0.28250			 0.06300
	39.75			  10.38134			  0.15526			 -0.12664
	40.00			  10.38293			  0.10923			 -0.11438
	40.25			  10.41733			  -0.00680			 -0.03251
	40.50			  10.43854			  -0.14979			 -0.10231
	40.75			  10.29228			  -0.12389			 -0.02971
	41.00			  10.18883			  0.05235			 0.00208
	41.25			  10.20671			  0.14756			 -0.01201
	41.50			  10.16945			  0.23682			 0.03965
	41.75			  10.12964			  0.27218			 -0.02990
	42.00			  10.21378			  0.31401			 0.01081
	42.25			  10.14799			  0.23595			 -0.09622
	42.50			  10.08690			  0.15299			 0.06284
	42.75			  10.11733			  0.08998			 0.15280
	43.00			  10.11574			  0.26570			 0.01076
	43.25			  10.19924			  0.44930			 -0.02557
	43.50			  10.22665			  0.36004			 0.00252
	43.75			  10.12233			  0.28688			 0.00994
	44.00			  10.20528			  0.15141			 0.09958
	44.25			  10.27400			  0.40064			 0.03702
	44.50			  10.25756			  0.42987			 -0.08046
	44.75			  10.26566			  0.42077			 -0.05194
	45.00			  10.11057			  0.30753			 0.00964
	45.25			  10.11025			  0.27305			 0.11317
	45.50			  10.16508			  0.13269			 0.12599
	45.75			  10.07442			  0.14914			 0.00032
	46.00			  9.94237			  0.08176			 0.11342
	46.25			  10.07585			  0.04623			 0.14657
	46.50			  9.99839			  0.10118			 0.08414
	46.75			  9.99322			  -0.01153			 0.07408
	47.00			  9.86578			  -0.13387			 0.01278
	47.25			  9.87262			  -0.11321			 0.05983
	47.50			  9.81676			  -0.05056			 0.09876
	47.75			  9.89431			  -0.01905			 -0.00014
	48.00			  9.87738			  0.03625			 0.02336
	48.25			  9.89343			  0.20707			 -0.02500
	48.50			  9.92204			  0.25713			 -0.05617
	48.75			  9.98782			  0.18257			 -0.05631
	49.00			  9.83472			  0.11851			 -0.16242
	49.25			  9.83702			  0.08456			 -0.12701
	49.50			  9.89685			  0.13776			 -0.18162
	49.75			  9.90853			  0.14529			 -0.13104
	50.00			  9.85307			  0.09786			 -0.12930
	50.25			  9.87103			  0.04273			 -0.04591
	50.50			  9.90964			  0.07738			 -0.19346
	50.75			  9.84346			  0.16279			 -0.31101
	51.00			  9.78157			  0.27078			 -0.20061
	51.25			  9.76003			  0.33501			 -0.22095
	51.50			  9.54504			  0.33081			 -0.32911
	51.75			  9.57333			  0.16594			 -0.29513
	52.00			  9.69822			  0.28145			 -0.41948
	52.25			  9.84028			  0.36161			 -0.32764
	52.50			  9.86062			  0.31838			 -0.22632
	52.75			  9.82630			  0.27638			 -0.22375
	53.00			  9.87548			  0.24015			 -0.16923
	53.25			  9.87476			  0.12814			 -0.21399
	53.50			  9.87246			  0.13426			 -0.11945
	53.75			  9.99537			  0.22632			 -0.12653
	54.00			  9.96812			  0.29230			 -0.22018
	54.25			  9.91616			  0.25520			 -0.16300
	54.50			  9.93967			  0.15001			 -0.11516
	54.75			  9.88080			  0.05743			 0.02355
	55.00			  9.92887			  0.05830			 0.13000
	55.25			  9.92299			  0.05760			 0.09033
	55.50			  9.92251			  0.11869			 0.10577
	55.75			  9.94484			  -0.00260			 0.07227
	56.00			  9.99751			  0.02067			 0.03514
	56.25			  9.96796			  0.02172			 -0.02454
	56.50			  10.00824			  -0.03673			 0.08105
	56.75			  10.02278			  -0.06631			 0.12210
	57.00			  10.19821			  -0.02938			 -0.01842
	57.25			  10.15951			  -0.04951			 -0.08465
	57.50			  10.09389			  0.01927			 -0.21262
	57.75			  10.09349			  0.06583			 -0.23518
	58.00			  10.10366			  0.04728			 -0.21940
	58.25			  10.15610			  0.03800			 -0.13940
	58.50			  10.07458			  0.08648			 -0.12359
	58.75			  10.05917			  -0.05878			 -0.00507
	59.00			  10.12638			  0.07528			 0.09653
	59.25			  10.05575			  0.17732			 -0.00110
	59.50			  9.99712			  0.12621			 0.10897
	59.75			  10.03231			  0.18204			 0.10622
	60.00			  10.05758			  0.17644			 -0.07684
	60.25			  10.08443			  0.14809			 -0.12002
	60.50			  10.02763			  0.03468			 -0.11961
	60.75			  9.99529			  -0.02045			 -0.19933
	61.00			  9.94682			  0.06145			 -0.15415
	61.25			  9.89264			  0.04273			 -0.10621
	61.50			  10.08110			  0.05585			 -0.18572
	61.75			  10.10938			  0.04220			 -0.15628
	62.00			  10.28886			  0.01455			 -0.26308
	62.25			  10.27837			  -0.08819			 -0.25275
	62.50			  10.41511			  0.06986			 -0.14144
	62.75			  10.46031			  -0.03428			 -0.08944
	63.00			  10.47048			  -0.00418			 -0.15402
	63.25			  10.37792			  0.02067			 -0.02151
	63.50			  10.47287			  0.09786			 -0.05194
	63.75			  10.49646			  0.08368			 -0.11958
	64.00			  10.52101			  0.08491			 -0.17150
	64.25			  10.44268			  -0.01608			 -0.07807
	64.50			  10.37467			  0.00562			 -0.07455
	64.75			  10.43092			  0.11799			 -0.18419
	65.00			  10.33963			  0.03625			 -0.15454
	65.25			  10.39437			  0.14529			 -0.03620
	65.50			  10.51577			  0.23560			 0.06721
	65.75			  10.54223			  0.32293			 0.06611
	66.00			  10.48780			  0.31786			 -0.09028
	66.25			  10.50981			  0.20847			 -0.17672
	66.50			  10.48248			  0.14879			 -0.21548
	66.75			  10.27225			  0.08858			 -0.17459
	67.00			  10.32747			  0.24662			 -0.15601
	67.25			  10.31134			  0.16909			 -0.15473
	67.50			  10.35433			  0.22125			 -0.12625
	67.75			  10.35520			  0.27620			 -0.10495
	68.00			  10.34892			  0.14826			 -0.15782
	68.25			  10.50727			  0.20007			 -0.06126
	68.50			  10.59069			  0.20672			 -0.12442
	68.75			  10.45666			  0.18134			 -0.23312
	69.00			  10.55963			  0.02295			 -0.22810
	69.25			  10.50520			  0.04308			 -0.30258
	69.50			  10.43942			  -0.02255			 -0.24902
	69.75			  10.49615			  -0.09501			 -0.15095
	70.00			  10.50179			  0.03765			 -0.16886
	70.25			  10.48550			  0.01840			 -0.26840
	70.50			  10.48979			  0.04623			 -0.22231
	70.75			  10.48208			  -0.03796			 -0.15014
	71.00			  10.51013			  0.10538			 -0.14133
	71.25			  10.43473			  0.24995			 -0.19537
	71.50			  10.51124			  0.17627			 -0.33854
	71.75			  10.50362			  0.14616			 -0.18744
	72.00			  10.40303			  0.04063			 -0.16712
	72.25			  10.38436			  -0.04426			 -0.12877
	72.50			  10.39477			  0.02540			 -0.08724
	72.75			  10.44339			  -0.01135			 -0.05649
	73.00			  10.36052			  -0.09536			 -0.19019
	73.25			  10.25088			  -0.18865			 -0.08708
	73.50			  10.29315			  -0.12897			 0.09030
	73.75			  10.31818			  -0.14279			 0.05569
	74.00			  10.20011			  -0.00400			 -0.08884
	74.25			  10.09905			  0.02698			 -0.07171
	74.50			  10.07665			  -0.00365			 -0.13551
	74.75			  9.97757			  -0.06753			 -0.06804
	75.00			  10.10437			  -0.03656			 0.00391
	75.25			  10.27273			  0.01612			 0.05754
	75.50			  10.21187			  0.01035			 -0.00112
	75.75			  10.13679			  0.08123			 -0.06875
	76.00			  10.27877			  -0.00418			 0.11525
	76.25			  10.14172			  0.02260			 0.01988
	76.50			  10.17977			  -0.01153			 -0.05148
	76.75			  10.16555			  0.00947			 -0.16041
	77.00			  10.08229			  0.09646			 -0.10582
	77.25			  10.18255			  0.11011			 0.01287
	77.50			  10.17413			  0.21915			 0.00387
	77.75			  10.06592			  0.26973			 -0.04007
	78.00			  9.97312			  0.13041			 -0.09074
	78.25			  10.05853			  0.19744			 -0.07510
	78.50			  10.09579			  0.08281			 0.08586
	78.75			  10.07259			  0.00965			 0.13825
	79.00			  10.11883			  -0.06981			 0.02854
	79.25			  10.13083			  -0.14892			 0.07853
	79.50			  10.08006			  -0.28806			 0.13463
	79.75			  10.07196			  -0.27931			 -0.09908
	80.00			  10.18247			  -0.28106			 -0.14515
	80.25			  10.12670			  -0.10061			 -0.17037
	80.50			  10.24937			  -0.05458			 -0.16721
	80.75			  10.33280			  -0.00610			 0.02850
	81.00			  10.25207			  -0.07594			 -0.03558
	81.25			  10.24969			  -0.06386			 -0.12882
	81.50			  10.29172			  0.06793			 -0.00376
	81.75			  10.13600			  -0.10691			 -0.05507
	82.00			  10.09722			  -0.09606			 -0.06896
	82.25			  10.03470			  -0.10341			 -0.10268
	82.50			  9.91997			  -0.34144			 -0.17951
	82.75			  9.88461			  -0.18742			 -0.12446
	83.00			  9.98965			  -0.13264			 -0.05842
	83.25			  9.97852			  -0.11444			 -0.05439
	83.50			  10.02691			  -0.18882			 0.09795
	83.75			  10.16746			  -0.14804			 0.06135
	84.00			  10.18057			  -0.05266			 0.00456
	84.25			  10.09222			  -0.08819			 0.02107
	84.50			  10.07959			  0.02943			 -0.07734
	84.75			  10.14005			  -0.05843			 -0.00351
	85.00			  10.17946			  -0.10709			 0.03528
	85.25			  10.15038			  -0.05703			 0.11053
	85.50			  10.14847			  -0.09309			 0.11756
	85.75			  10.16905			  -0.06071			 0.14288
	86.00			  10.31063			  -0.07996			 0.26672
	86.25			  10.32890			  -0.06228			 0.25538
	86.50			  10.27639			  0.02785			 0.10929
	86.75			  10.16214			  0.03730			 0.15035
	87.00			  10.18494			  0.05638			 -0.06797
	87.25			  10.15856			  -0.02273			 -0.11383
	87.50			  10.25342			  -0.05686			 -0.08325
	87.75			  10.29077			  0.07616			 -0.19999
	88.00			  10.39461			  -0.09116			 -0.24698
	88.25			  10.39151			  -0.04601			 -0.20716
	88.50			  10.30976			  -0.06858			 -0.29401
	88.75			  10.25239			  -0.13562			 -0.30113
	89.00			  10.21140			  -0.05476			 -0.33685
	89.25			  10.22403			  -0.07209			 -0.41611
	89.50			  10.12829			  -0.08731			 -0.31497
	89.75			  10.02341			  -0.15522			 -0.23310
	90.00			  10.07593			  -0.09571			 -0.24386
	90.25			  10.14783			  -0.21700			 -0.19147
	90.50			  9.94460			  -0.16887			 -0.18927
	90.75			  9.94825			  -0.21823			 -0.29660
	91.00			  10.00554			  -0.36804			 -0.19814
	91.25			  9.98544			  -0.36857			 -0.20737
	91.50			  9.82534			  -0.35597			 -0.17864
	91.75			  9.91187			  -0.37784			 -0.16215
	92.00			  9.96399			  -0.44348			 -0.13457
	92.25			  9.84719			  -0.58034			 -0.05835
	92.50			  9.87659			  -0.53169			 -0.14891
	92.75			  9.87778			  -0.46098			 -0.35760
	93.00			  9.74009			  -0.49388			 -0.33799
	93.25			  9.84521			  -0.50543			 -0.22109
	93.50			  9.83019			  -0.42807			 -0.14501
	93.75			  9.70140			  -0.43105			 -0.10717
	94.00			  9.67280			  -0.33339			 0.00263
	94.25			  9.65667			  -0.32201			 -0.11613
	94.50			  9.76862			  -0.27651			 -0.12845
	94.75			  9.80024			  -0.23433			 0.07099
	95.00			  9.74724			  -0.16117			 0.07706
	95.25			  9.70291			  -0.16362			 -0.13159
	95.50			  9.74994			  -0.28263			 -0.11404
	95.75			  9.76877			  -0.28963			 -0.10845
	96.00			  9.92315			  -0.15242			 -0.16753
	96.25			  9.82892			  -0.28946			 -0.16034
	96.50			  9.85347			  -0.25341			 -0.20316
	96.75			  9.99418			  -0.22523			 -0.04117
	97.00			  10.01380			  -0.20545			 -0.12442
	97.25			  9.99664			  -0.17150			 -0.18471
	97.50			  9.94420			  -0.21613			 -0.17505
	97.75			  10.05361			  -0.25376			 -0.28315
	98.00			  10.07585			  -0.22995			 -0.14620
	98.25			  10.07148			  -0.13719			 -0.14490
	98.50			  9.93602			  -0.17622			 -0.19637
	98.75			  9.95882			  -0.41845			 -0.11816
	99.00			  9.99656			  -0.25463			 -0.06009
	99.25			  10.09095			  -0.13562			 -0.12316
	99.50			  10.30459			  -0.16957			 -0.11583
	99.75			  10.33089			  -0.15277			 -0.06032
	100.00			  10.27917			  -0.28456			 -0.05093
	100.25			  10.24770			  -0.30276			 -0.14327
	100.50			  10.14045			  -0.26391			 -0.15266
	100.75			  10.26042			  -0.23800			 -0.14561
	101.00			  10.24667			  -0.10324			 -0.12694
	101.25			  10.25557			  -0.36979			 -0.28867
	101.50			  10.26741			  -0.40270			 -0.19873
	101.75			  10.27281			  -0.24483			 -0.24272
	102.00			  10.18684			  -0.12617			 -0.33231
	102.25			  10.31508			  -0.18777			 -0.34198
	102.50			  10.26622			  -0.10289			 -0.19289
	102.75			  10.38388			  0.00860			 -0.22034
	103.00			  10.52928			  -0.21753			 -0.34642
	103.25			  10.53698			  -0.22243			 -0.45742
	103.50			  10.43799			  -0.18532			 -0.23284
	103.75			  10.41852			  -0.28316			 -0.16098
	104.00			  10.36076			  -0.25411			 -0.04726
	104.25			  10.46484			  -0.13824			 -0.09191
	104.50			  10.42774			  0.06881			 0.06263
	104.75			  10.29982			  0.01262			 0.13399
	105.00			  10.38309			  -0.02518			 0.12343
	105.25			  10.32159			  -0.03901			 0.10279
	105.50			  10.27353			  -0.13247			 0.03567
	105.75			  10.30713			  -0.10376			 0.00538
	106.00			  10.35639			  -0.16835			 0.04293
	106.25			  10.44347			  -0.20072			 -0.02678
	106.50			  10.43640			  -0.26356			 0.04029
	106.75			  10.37411			  -0.34547			 0.10258
	107.00			  10.47414			  -0.27598			 0.13085
	107.25			  10.52928			  -0.30819			 0.12906
	107.50			  10.55867			  -0.22103			 0.08911
	107.75			  10.63463			  -0.23923			 0.08730
	108.00			  10.62462			  -0.31554			 0.13962
	108.25			  10.49074			  -0.38799			 0.16980
	108.50			  10.45404			  -0.33934			 0.11436
	108.75			  10.64607			  -0.44470			 0.06034
	109.00			  10.65711			  -0.42440			 0.00474
	109.25			  10.73299			  -0.23345			 0.10398
	109.50			  10.72576			  -0.27616			 0.26764
	109.75			  10.75428			  -0.38642			 0.10648
	110.00			  10.72393			  -0.46850			 0.08247
	110.25			  10.51672			  -0.53974			 0.09805
	110.50			  10.51307			  -0.47655			 0.14350
	110.75			  10.54787			  -0.37942			 0.15174
	111.00			  10.63892			  -0.40637			 0.11479
	111.25			  10.51228			  -0.49336			 0.06341
	111.50			  10.49885			  -0.41477			 0.05129
	111.75			  10.58410			  -0.40952			 0.12634
	112.00			  10.39691			  -0.43262			 -0.02580
	112.25			  10.46278			  -0.25673			 0.16533
	112.50			  10.36076			  -0.18882			 0.17291
	112.75			  10.39183			  -0.10009			 0.12164
	113.00			  10.33462			  -0.12092			 0.19151
	113.25			  10.46492			  -0.27493			 0.14382
	113.50			  10.41431			  -0.34967			 0.03803
	113.75			  10.50020			  -0.27388			 0.04094
	114.00			  10.57822			  -0.29331			 -0.01851
	114.25			  10.34710			  -0.23905			 0.03997
	114.50			  10.45038			  -0.21875			 -0.06575
	114.75			  10.47295			  -0.25988			 -0.09033
	115.00			  10.45467			  -0.24045			 0.06208
	115.25			  10.46270			  -0.16660			 0.08950
	115.50			  10.35965			  -0.34126			 0.17188
	115.75			  10.47438			  -0.46413			 0.16130
	116.00			  10.49893			  -0.48618			 0.10203
	116.25			  10.49122			  -0.54639			 0.21188
	116.50			  10.58322			  -0.45170			 0.06455
	116.75			  10.48431			  -0.34722			 0.07754
	117.00			  10.56122			  -0.34757			 0.19444
	117.25			  10.59085			  -0.47953			 0.09404
	117.50			  10.51879			  -0.52118			 0.03308
	117.75			  10.44538			  -0.48286			 0.00025
	118.00			  10.35202			  -0.48110			 -0.02289
	118.25			  10.22212			  -0.61972			 0.02373
	118.50			  10.27361			  -0.60082			 0.00605
	118.75			  10.45865			  -0.58979			 -0.04458
	119.00			  10.43227			  -0.37137			 0.01743
	119.25			  10.45150			  -0.33811			 0.10114
	119.50			  10.33145			  -0.40760			 0.01067
	119.75			  10.31031			  -0.30644			 -0.01338
	120.00			  10.32334			  -0.35282			 0.01677
	120.25			  10.32779			  -0.33899			 0.01791
	120.50			  10.22347			  -0.29173			 -0.07746
	120.75			  10.16627			  -0.34249			 -0.13887
	121.00			  10.08133			  -0.31991			 -0.09159
	121.25			  9.97519			  -0.27318			 0.01496
	121.50			  10.05805			  -0.47270			 -0.04733
	121.75			  9.98027			  -0.50526			 -0.16252
	122.00			  10.03684			  -0.59837			 -0.02209
	122.25			  9.96891			  -0.47550			 -0.04238
	122.50			  9.78967			  -0.48793			 -0.18590
	122.75			  9.78943			  -0.47673			 -0.15958
	123.00			  9.84123			  -0.42300			 -0.02147
	123.25			  9.77449			  -0.36647			 -0.16455
	123.50			  9.70919			  -0.34284			 -0.16485
	123.75			  9.75980			  -0.37837			 -0.19335
	124.00			  9.80326			  -0.49686			 -0.16286
	124.25			  9.91862			  -0.52031			 -0.09187
	124.50			  9.95405			  -0.58349			 -0.07830
	124.75			  9.98432			  -0.41337			 -0.06373
	125.00			  9.95024			  -0.52643			 -0.06802
	125.25			  9.96073			  -0.56441			 0.00240
	125.50			  10.00752			  -0.47760			 -0.13198
	125.75			  10.00848			  -0.44103			 -0.16135
	126.00			  9.99378			  -0.45800			 -0.09333
	126.25			  10.11899			  -0.41530			 -0.04195
	126.50			  10.12265			  -0.47165			 -0.01246
	126.75			  10.13441			  -0.38379			 -0.07425
	127.00			  10.29339			  -0.27546			 -0.03524
	127.25			  10.16651			  -0.25376			 0.01661
	127.50			  10.16285			  -0.26321			 0.07040
	127.75			  10.20623			  -0.18970			 -0.02573
	128.00			  10.12948			  -0.20755			 -0.12199
	128.25			  10.16905			  -0.06211			 -0.08923
	128.50			  10.09079			  -0.05703			 0.01970
	128.75			  10.12122			  -0.12319			 -0.02509
	129.00			  10.10922			  -0.14857			 -0.00167
	129.25			  10.16611			  0.04308			 0.04614
	129.50			  10.13766			  -0.05563			 0.09789
	129.75			  10.21942			  0.03783			 0.10817
	130.00			  10.17000			  -0.09956			 0.10478
	130.25			  10.11439			  -0.11654			 0.00737
	130.50			  10.07831			  -0.06823			 -0.09656
	130.75			  9.96534			  -0.04496			 -0.09661
	131.00			  9.81565			  -0.10429			 -0.11141
	131.25			  9.83138			  -0.01363			 -0.09581
	131.50			  9.89621			  0.07966			 0.04144
	131.75			  9.92513			  0.15106			 0.04723
	132.00			  10.01444			  0.19062			 -0.05860
	132.25			  10.07935			  0.40239			 -0.08813
	132.50			  10.16166			  0.34569			 -0.06550
	132.75			  10.13917			  0.22475			 0.00820
	133.00			  10.16372			  0.25678			 0.00414
	133.25			  10.13179			  0.25380			 0.23639
	133.50			  10.08737			  0.23857			 0.25188
	133.75			  10.13067			  0.28600			 0.28867
	134.00			  10.13107			  0.32363			 0.16166
	134.25			  10.01054			  0.32311			 0.20615
	134.50			  10.05623			  0.25380			 0.10574
	134.75			  10.02103			  0.34936			 0.18359
	135.00			  10.10533			  0.27690			 0.07976
	135.25			  10.08952			  0.18082			 -0.11127
	135.50			  10.17016			  0.24120			 -0.15051
	135.75			  10.06385			  0.33606			 -0.19401
	136.00			  10.05623			  0.27008			 -0.09455
	136.25			  10.04606			  0.28425			 0.01956
	136.50			  10.20488			  0.37946			 0.12677
	136.75			  10.18541			  0.24032			 0.07688
	137.00			  10.13902			  0.15981			 0.00023
	137.25			  10.16929			  0.10783			 0.03228
	137.50			  10.11979			  0.10591			 -0.04582
	137.75			  10.13981			  0.17662			 0.01713
	138.00			  10.19646			  0.16507			 -0.03524
	138.25			  10.21171			  0.18572			 -0.08820
	138.50			  10.09262			  0.05918			 -0.14220
	138.75			  10.17922			  0.20199			 -0.28920
	139.00			  10.26741			  0.15561			 -0.18506
	139.25			  10.28854			  0.08123			 -0.20180
	139.50			  10.27448			  -0.00803			 -0.14691
	139.75			  10.34154			  0.10748			 -0.13076
	140.00			  10.29641			  0.23437			 0.01837
	140.25			  10.21521			  0.19552			 -0.05968
	140.50			  10.32271			  0.05638			 -0.11175
	140.75			  10.27448			  -0.03236			 -0.15972
	141.00			  10.26892			  -0.04391			 -0.13871
	141.25			  10.19543			  0.07563			 -0.02809
	141.50			  10.19670			  0.15841			 -0.03017
	141.75			  10.26312			  0.13006			 -0.05604
	142.00			  10.29943			  0.14196			 0.04268
	142.25			  10.20035			  0.05480			 0.01702
	142.50			  10.25835			  0.04518			 -0.13828
	142.75			  10.18319			  0.04815			 -0.23307
	143.00			  10.22490			  0.08701			 -0.06147
	143.25			  10.21982			  0.01420			 0.00957
	143.50			  10.27003			  -0.09834			 -0.07292
	143.75			  10.32819			  -0.15312			 -0.08529
	144.00			  10.41392			  -0.22278			 0.00421
	144.25			  10.43672			  -0.32131			 0.03019
	144.50			  10.29665			  -0.32359			 0.05766
	144.75			  10.21068			  -0.25586			 0.01147
	145.00			  10.29299			  -0.26163			 -0.04868
	145.25			  10.39985			  -0.16064			 0.01812
	145.50			  10.31571			  -0.17325			 0.10689
	145.75			  10.33979			  -0.22330			 0.20425
	146.00			  10.24214			  -0.25428			 0.15841
	146.25			  10.30602			  -0.27913			 0.14755
	146.50			  10.32700			  -0.15907			 0.03560
	146.75			  10.29418			  -0.01538			 0.08721
	147.00			  10.44077			  -0.04356			 0.20675
	147.25			  10.45555			  -0.10744			 0.12137
	147.50			  10.30149			  -0.04828			 0.02925
	147.75			  10.25708			  -0.10219			 0.06581
	148.00			  10.17922			  -0.10201			 0.05830
	148.25			  10.08769			  0.18064			 -0.08621
	148.50			  9.96422			  0.12271			 -0.09551
	148.75			  9.95088			  0.04168			 -0.03130
	149.00			  10.04367			  0.07423			 0.04185
	149.25			  10.03636			  0.00545			 0.01443
	149.50			  10.11725			  -0.02080			 -0.03288
	149.75			  10.05956			  -0.01730			 -0.06577
	150.00			  10.06918			  -0.00488			 0.11534
	150.25			  10.00451			  -0.03341			 0.04957
	150.50			  10.00864			  -0.01555			 -0.00534
	150.75			  10.08547			  -0.11111			 0.11990
	151.00			  10.11899			  -0.08399			 0.04091
	151.25			  10.12877			  -0.13667			 0.08776
	151.50			  10.16865			  0.00387			 0.08057
	151.75			  10.22975			  0.05113			 0.13021
	152.00			  10.11653			  0.05725			 0.00055
	152.25			  10.16913			  0.09663			 0.11369
	152.50			  10.20075			  0.10608			 0.11795
	152.75			  10.47326			  0.13199			 0.03273
	153.00			  10.47946			  0.13094			 -0.05239
	153.25			  10.45777			  0.06513			 -0.13958
	153.50			  10.60404			  -0.08696			 -0.12973
	153.75			  10.72012			  -0.08591			 -0.02078
	154.00			  10.56662			  -0.05283			 0.05072
	154.25			  10.45046			  -0.11584			 -0.10815
	154.50			  10.46286			  -0.24203			 -0.00733
	154.75			  10.45420			  -0.15102			 0.12350
	155.00			  10.53150			  -0.26478			 0.02045
	155.25			  10.63217			  -0.38764			 -0.06318
	155.50			  10.72481			  -0.27931			 -0.10760
	155.75			  10.68135			  -0.29471			 -0.16160
	156.00			  10.70073			  -0.17167			 0.04295
	156.25			  10.73649			  -0.15732			 0.01235
	156.50			  10.68135			  -0.20475			 0.04930
	156.75			  10.79885			  -0.16520			 0.01842
	157.00			  10.67459			  -0.10709			 0.16984
	157.25			  10.73418			  -0.09256			 0.15781
	157.50			  10.78225			  -0.11742			 0.11667
	157.75			  10.82936			  -0.18935			 0.05262
	158.00			  10.79719			  -0.28053			 -0.00468
	158.25			  10.84716			  -0.33671			 0.06772
	158.50			  10.90429			  -0.23118			 0.20853
	158.75			  10.69485			  -0.36664			 0.18929
	159.00			  10.69311			  -0.46518			 0.16698
	159.25			  10.68151			  -0.41827			 0.28688
	159.50			  10.71885			  -0.43945			 0.18072
	159.75			  10.73958			  -0.39010			 0.13124
	160.00			  10.74507			  -0.33391			 0.13365
	160.25			  10.67237			  -0.23783			 0.19614
	160.50			  10.69136			  -0.30714			 0.09269
	160.75			  10.74801			  -0.46080			 0.22024
	161.00			  10.72671			  -0.44558			 0.17894
	161.25			  10.72902			  -0.37312			 0.03541
	161.50			  10.70343			  -0.24045			 -0.06955
	161.75			  10.70741			  -0.32254			 -0.24231
	162.00			  10.70884			  -0.28456			 -0.25516
	162.25			  10.61628			  -0.29979			 -0.32008
	162.50			  10.58410			  -0.32726			 -0.31183
	162.75			  10.48900			  -0.34862			 -0.17292
	163.00			  10.53563			  -0.22435			 -0.15436
	163.25			  10.47843			  -0.04933			 -0.31731
	163.50			  10.61373			  -0.10026			 -0.32074
	163.75			  10.61493			  -0.19740			 -0.31648
	164.00			  10.56805			  -0.26093			 -0.30549
	164.25			  10.67229			  -0.19092			 -0.27236
	164.50			  10.55637			  -0.18095			 -0.13736
	164.75			  10.48812			  -0.28526			 -0.14870
	165.00			  10.55089			  -0.34634			 -0.17757
	165.25			  10.59975			  -0.27441			 0.01677
	165.50			  10.69160			  -0.17692			 -0.02413