--------------TurbSim v2.00.* User Time Series Input File-----------------------
     Time series input from low-res turbsim run
--------------------------------------------------------------------------------
          3 nComp - Number of velocity components in the file
          1 nPoints - Number of time series points contained in this file (-)
          1 RefPtID - Index of the reference point (1-nPoints)
     Pointyi Pointzi ! nPoints listed in order of increasing height
       (m)     (m)
       -0.63780   94.00000
--------Time Series-------------------------------------------------------------
Elapsed Time         Point01u             Point01v           Point01w
         (s)            (m/s)                (m/s)              (m/s)
	0.00			  11.55438			  0.32057			 0.31723
	0.25			  11.45154			  0.34996			 0.19911
	0.50			  11.44053			  0.28015			 -0.13279
	0.75			  11.37927			  -0.34791			 0.08536
	1.00			  11.10645			  -0.65379			 0.23929
	1.25			  11.29493			  -0.81017			 0.20759
	1.50			  10.99470			  -0.72337			 0.09166
	1.75			  11.07772			  -0.72153			 -0.34842
	2.00			  10.85147			  -0.60901			 -0.11959
	2.25			  10.77198			  -0.25008			 -0.16550
	2.50			  10.75178			  -0.17706			 -0.25660
	2.75			  10.82418			  -0.23745			 0.04928
	3.00			  10.77867			  -0.40784			 0.05839
	3.25			  10.77854			  -0.29808			 -0.26401
	3.50			  10.88518			  -0.12011			 0.15381
	3.75			  11.02316			  0.24754			 0.17224
	4.00			  10.80753			  0.13709			 0.24328
	4.25			  11.15603			  -0.63335			 -0.07379
	4.50			  11.21794			  -0.59064			 0.17022
	4.75			  11.42282			  -0.28958			 0.23395
	5.00			  11.14868			  -0.02619			 0.24850
	5.25			  11.23079			  -0.15180			 0.29026
	5.50			  11.18685			  -0.34997			 0.08469
	5.75			  11.08874			  -0.08727			 0.30138
	6.00			  10.83966			  -0.19566			 0.02529
	6.25			  10.88675			  -0.49924			 -0.01916
	6.50			  10.94774			  -0.43241			 0.19101
	6.75			  10.79362			  -0.42231			 0.42002
	7.00			  10.84320			  -0.56055			 0.56680
	7.25			  10.61786			  -0.48500			 0.24333
	7.50			  10.97450			  -0.40670			 0.27435
	7.75			  10.91364			  -0.28338			 0.44086
	8.00			  11.07995			  0.19404			 0.19523
	8.25			  10.80792			  0.42138			 -0.08705
	8.50			  10.46545			  0.63035			 -0.20697
	8.75			  10.49929			  0.76331			 -0.03524
	9.00			  10.71545			  0.45491			 0.04586
	9.25			  10.40223			  0.36971			 -0.03018
	9.50			  10.38334			  0.52885			 -0.07424
	9.75			  10.48696			  0.35157			 -0.10374
	10.00			  10.75362			  0.42988			 -0.19270
	10.25			  10.76345			  0.48912			 -0.10363
	10.50			  10.78706			  0.51163			 -0.16556
	10.75			  10.69249			  0.75458			 -0.38804
	11.00			  10.37416			  0.60876			 -0.27019
	11.25			  10.51424			  0.25627			 -0.18579
	11.50			  10.48998			  0.40967			 -0.13628
	11.75			  10.73014			  0.37224			 -0.08441
	12.00			  10.48788			  0.45192			 -0.38579
	12.25			  10.35357			  0.28520			 -0.32746
	12.50			  10.15459			  0.51553			 -0.00944
	12.75			  10.26424			  0.65974			 0.03849
	13.00			  10.52355			  0.58006			 0.39276
	13.25			  10.41390			  0.20437			 -0.07047
	13.50			  10.52460			  0.04477			 -0.05024
	13.75			  10.46479			  -0.17476			 0.03265
	14.00			  10.29231			  0.04408			 -0.20928
	14.25			  10.31907			  0.23009			 -0.18680
	14.50			  10.49824			  -0.16397			 0.02855
	14.75			  10.70666			  0.26431			 0.00073
	15.00			  10.82182			  0.21930			 -0.09402
	15.25			  10.86314			  0.34215			 -0.35640
	15.50			  10.74207			  0.08588			 -0.41260
	15.75			  10.55385			  0.07371			 -0.13330
	16.00			  10.84950			  -0.38212			 -0.13347
	16.25			  10.74470			  -0.31071			 0.15325
	16.50			  10.76791			  -0.05489			 0.08199
	16.75			  10.89934			  0.28084			 0.13189
	17.00			  10.70036			  0.46800			 -0.00601
	17.25			  10.70535			  0.39382			 0.38326
	17.50			  10.60422			  0.24525			 0.26092
	17.75			  10.36104			  0.40209			 -0.11785
	18.00			  10.44695			  0.38808			 -0.31167
	18.25			  10.37049			  0.46800			 -0.45868
	18.50			  10.11026			  0.12147			 -0.23294
	18.75			  10.36353			  -0.01585			 -0.06614
	19.00			  10.71309			  -0.30014			 -0.00247
	19.25			  10.59137			  -0.15134			 0.16426
	19.50			  10.76608			  -0.34102			 -0.02765
	19.75			  10.66875			  -0.16948			 -0.02782
	20.00			  10.81540			  -0.28981			 0.14684
	20.25			  10.42728			  -0.14514			 -0.05170
	20.50			  10.41836			  0.25627			 -0.17000
	20.75			  10.79952			  0.04248			 -0.22074
	21.00			  10.91298			  -0.11850			 -0.29172
	21.25			  11.01096			  -0.24273			 -0.19129
	21.50			  10.87376			  0.15178			 0.20782
	21.75			  10.68410			  -0.16558			 0.52589
	22.00			  10.64829			  -0.12424			 0.22327
	22.25			  10.75204			  0.08289			 0.29177
	22.50			  11.16665			  -0.06660			 0.08283
	22.75			  11.10645			  -0.09255			 0.09014
	23.00			  10.99443			  -0.39200			 -0.07514
	23.25			  11.18043			  -0.43839			 -0.24153
	23.50			  10.92466			  0.06452			 -0.11363
	23.75			  10.95889			  -0.01861			 0.23799
	24.00			  10.68397			  -0.31071			 0.31240
	24.25			  11.04074			  0.04615			 0.02793
	24.50			  10.91115			  0.27234			 -0.11105
	24.75			  10.93253			  0.63678			 -0.09138
	25.00			  11.03182			  0.65883			 -0.10655
	25.25			  10.91993			  0.29186			 0.09789
	25.50			  11.03024			  -0.36215			 0.05142
	25.75			  10.85317			  -0.49625			 0.02461
	26.00			  11.04611			  -0.26662			 -0.34629
	26.25			  11.31539			  -0.05650			 -0.09733
	26.50			  11.58966			  -0.00070			 -0.22844
	26.75			  11.57562			  0.08588			 -0.63165
	27.00			  11.50834			  0.09483			 -0.74624
	27.25			  11.65773			  0.21425			 -0.43569
	27.50			  11.38819			  0.11206			 -0.12740
	27.75			  11.54926			  0.52495			 -0.41642
	28.00			  11.48171			  0.65951			 -0.17438
	28.25			  11.47843			  0.94128			 0.16162
	28.50			  11.37311			  0.40370			 0.30818
	28.75			  11.23368			  0.44228			 0.09312
	29.00			  11.38622			  0.73966			 0.22254
	29.25			  11.30097			  0.53918			 0.24867
	29.50			  11.29362			  0.23698			 -0.15100
	29.75			  11.27526			  0.14030			 -0.54466
	30.00			  11.34845			  0.08014			 -0.49453
	30.25			  11.08297			  0.03742			 -0.43502
	30.50			  11.39829			  0.10012			 -0.54972
	30.75			  11.51686			  0.07715			 -0.68886
	31.00			  11.50624			  0.32332			 -0.76276
	31.25			  11.63465			  0.14765			 -0.40018
	31.50			  11.55228			  0.55687			 -0.27486
	31.75			  11.05530			  0.69672			 -0.12223
	32.00			  10.95836			  0.73851			 -0.22175
	32.25			  11.09766			  0.68638			 -0.33561
	32.50			  10.76857			  0.62484			 0.00180
	32.75			  10.91744			  1.02257			 0.15527
	33.00			  10.87376			  0.79845			 -0.25575
	33.25			  10.98919			  0.37017			 -0.32605
	33.50			  11.32274			  0.45100			 -0.47295
	33.75			  11.45784			  0.15913			 -0.30414
	34.00			  11.31539			  0.13663			 -0.36455
	34.25			  11.14580			  0.35570			 -0.31869
	34.50			  11.17754			  0.27303			 -0.45497
	34.75			  10.93502			  0.38418			 -0.22956
	35.00			  11.29769			  0.25926			 -0.24238
	35.25			  11.59058			  0.69626			 -0.31628
	35.50			  11.26778			  0.68960			 -0.50920
	35.75			  11.13071			  0.88456			 -0.81592
	36.00			  11.08376			  0.51898			 -0.34190
	36.25			  10.87468			  0.69212			 -0.41574
	36.50			  11.17138			  0.72175			 -0.40529
	36.75			  11.27434			  0.71279			 -0.28925
	37.00			  10.95115			  0.68546			 -0.38658
	37.25			  10.47660			  0.68960			 0.01517
	37.50			  10.19827			  0.30978			 0.10340
	37.75			  10.54375			  0.10287			 0.32673
	38.00			  10.83441			  0.11252			 0.14353
	38.25			  10.58940			  0.45651			 0.26828
	38.50			  10.37468			  0.58052			 -0.11397
	38.75			  10.09399			  0.76308			 -0.11256
	39.00			  10.34176			  0.91051			 -0.07811
	39.25			  10.09071			  0.76721			 -0.11031
	39.50			  9.86196			  0.71784			 -0.04721
	39.75			  9.66285			  0.80005			 0.10823
	40.00			  9.41666			  1.06115			 -0.05867
	40.25			  9.68751			  1.04485			 -0.14920
	40.50			  9.64488			  1.04163			 -0.10453
	40.75			  9.42046			  1.08618			 -0.12184
	41.00			  9.70286			  1.10823			 -0.37742
	41.25			  9.24418			  0.78857			 -0.32555
	41.50			  9.71558			  0.62162			 -0.50257
	41.75			  9.82196			  0.74287			 -0.50049
	42.00			  9.63675			  0.39199			 -0.66048
	42.25			  9.60409			  0.42689			 -0.18017
	42.50			  9.88242			  0.66916			 -0.32864
	42.75			  10.11170			  0.42965			 -0.14544
	43.00			  9.82182			  0.17659			 -0.10351
	43.25			  9.61327			  -0.05259			 -0.34471
	43.50			  9.64698			  0.12170			 -0.00270
	43.75			  9.43240			  -0.03652			 -0.11874
	44.00			  9.51149			  0.14237			 -0.00922
	44.25			  9.64921			  0.16510			 -0.05283
	44.50			  8.92951			  0.11229			 0.23749
	44.75			  9.20784			  0.11803			 0.31532
	45.00			  9.68922			  0.30771			 0.11728
	45.25			  9.36655			  0.38418			 0.14915
	45.50			  9.41010			  0.35065			 0.28700
	45.75			  9.77802			  0.42689			 0.19017
	46.00			  9.74339			  0.43401			 0.12768
	46.25			  9.41062			  0.05947			 -0.08328
	46.50			  9.57406			  -0.16098			 0.12335
	46.75			  9.82550			  -0.39246			 0.24333
	47.00			  9.64816			  -0.16466			 0.15078
	47.25			  9.50677			  -0.25858			 0.25081
	47.50			  9.45129			  -0.01792			 0.23103
	47.75			  9.49300			  0.03099			 -0.17966
	48.00			  9.68332			  -0.16236			 -0.19557
	48.25			  9.96781			  -0.17637			 -0.12920
	48.50			  9.46991			  -0.19405			 -0.06210
	48.75			  9.24365			  -0.19428			 -0.00652
	49.00			  9.24536			  0.10792			 0.29020
	49.25			  9.58638			  -0.33895			 0.14173
	49.50			  9.25073			  -0.03468			 -0.34792
	49.75			  9.07852			  0.05373			 -0.56484
	50.00			  9.34635			  0.06774			 -0.45272
	50.25			  9.47870			  0.08955			 -0.44834
	50.50			  9.38478			  0.13663			 -0.48211
	50.75			  9.54310			  0.26270			 -0.45446
	51.00			  9.53589			  0.36650			 -0.48453
	51.25			  9.24287			  0.36925			 -0.38607
	51.50			  9.35068			  0.24685			 -0.32161
	51.75			  9.45535			  0.12515			 -0.23372
	52.00			  9.33206			  0.01974			 -0.38545
	52.25			  9.19145			  -0.10059			 -0.33448
	52.50			  8.83363			  0.07486			 -0.39675
	52.75			  8.84006			  0.39313			 -0.36652
	53.00			  9.15341			  0.68983			 -0.09801
	53.25			  9.17427			  0.70246			 -0.21743
	53.50			  8.88702			  0.43975			 -0.05726
	53.75			  8.95614			  0.22068			 0.28520
	54.00			  8.85278			  0.19473			 0.29981
	54.25			  8.87390			  0.20139			 0.26452
	54.50			  9.03025			  0.56307			 0.22962
	54.75			  8.99772			  0.59613			 0.10065
	55.00			  9.11970			  0.71233			 -0.11509
	55.25			  9.38124			  0.36466			 -0.07665
	55.50			  9.26280			  0.54676			 -0.02298
	55.75			  9.60068			  0.65699			 -0.24170
	56.00			  9.53930			  0.26270			 0.04479
	56.25			  9.58481			  0.06774			 -0.01287
	56.50			  9.59544			  0.16304			 -0.24148
	56.75			  9.22594			  0.21471			 -0.05238
	57.00			  9.45168			  0.56375			 -0.07334
	57.25			  9.56317			  0.44365			 -0.25682
	57.50			  9.39987			  0.53689			 -0.16735
	57.75			  9.39410			  0.91602			 -0.07272
	58.00			  9.38111			  0.91166			 -0.50156
	58.25			  9.06160			  0.98950			 -0.55045
	58.50			  8.72988			  1.06666			 -0.39675
	58.75			  8.87429			  1.10340			 -0.07379
	59.00			  9.08678			  1.02005			 0.20787
	59.25			  9.12797			  0.99869			 0.45075
	59.50			  8.93738			  1.11029			 0.40158
	59.75			  8.95155			  1.30549			 0.24912
	60.00			  9.09491			  1.14979			 0.49414
	60.25			  9.27802			  0.88341			 0.31746
	60.50			  9.53457			  0.67077			 0.39574
	60.75			  9.53471			  0.84437			 0.31442
	61.00			  9.80189			  0.63954			 0.42816
	61.25			  10.15328			  0.38946			 0.33195
	61.50			  10.12626			  0.61565			 0.10374
	61.75			  10.08901			  0.28520			 0.09896
	62.00			  9.96938			  0.13525			 0.16960
	62.25			  10.05162			  -0.06430			 -0.10739
	62.50			  10.07497			  0.03352			 0.27373
	62.75			  10.10803			  -0.11988			 0.45593
	63.00			  9.53012			  -0.43517			 0.80097
	63.25			  9.60776			  -0.42530			 0.73921
	63.50			  9.45194			  -0.16374			 0.53095
	63.75			  9.60514			  0.13479			 0.17601
	64.00			  9.79192			  0.01859			 0.05569
	64.25			  9.50231			  -0.03124			 0.05221
	64.50			  9.60160			  0.37637			 0.19843
	64.75			  9.20758			  0.13410			 0.19871
	65.00			  9.12980			  0.50175			 0.37832
	65.25			  9.17610			  0.50405			 0.23063
	65.50			  9.39934			  0.63265			 0.30801
	65.75			  9.58140			  0.48912			 0.22260
	66.00			  9.64502			  0.33595			 0.25244
	66.25			  9.07065			  0.44641			 -0.03580
	66.50			  9.11380			  0.51369			 0.40670
	66.75			  9.24405			  0.38716			 0.11813
	67.00			  9.20063			  0.28176			 0.15954
	67.25			  9.34806			  0.45491			 0.49414
	67.50			  9.51385			  0.63793			 0.40293
	67.75			  9.57340			  0.68225			 0.53640
	68.00			  9.51018			  0.85103			 0.47711
	68.25			  9.56251			  0.63150			 0.45497
	68.50			  9.70863			  0.45674			 0.45958
	68.75			  9.80084			  0.55939			 0.07351
	69.00			  9.68568			  0.86734			 0.27182
	69.25			  9.49942			  0.80809			 0.33055
	69.50			  9.59557			  0.76515			 0.28053
	69.75			  9.59648			  0.67995			 0.00011
	70.00			  9.46112			  0.42414			 -0.04664
	70.25			  9.25952			  0.29117			 -0.02922
	70.50			  9.24365			  0.34767			 0.16910
	70.75			  9.41285			  -0.14330			 0.52887
	71.00			  9.55294			  0.14719			 0.41237
	71.25			  9.68109			  0.29829			 0.85234
	71.50			  9.79284			  0.59705			 0.69909
	71.75			  9.78339			  0.36810			 0.73314
	72.00			  9.86668			  0.54883			 0.67105
	72.25			  9.90144			  0.35754			 0.40259
	72.50			  10.09150			  0.03857			 0.47666
	72.75			  10.22175			  -0.32931			 0.57186
	73.00			  9.79913			  -0.33780			 0.54932
	73.25			  9.85973			  -0.09232			 0.05243
	73.50			  9.74208			  -0.06936			 0.25266
	73.75			  9.46270			  -0.67629			 0.47155
	74.00			  9.43594			  -0.56538			 0.83863
	74.25			  9.27172			  -0.40853			 0.39478
	74.50			  9.26569			  -0.21334			 0.46509
	74.75			  9.45496			  -0.15386			 0.10942
	75.00			  9.60514			  -0.48339			 0.05985
	75.25			  9.64160			  -0.28131			 0.19860
	75.50			  9.65354			  -0.22413			 0.11593
	75.75			  9.97975			  -0.29624			 0.50279
	76.00			  10.13439			  0.23905			 0.33100
	76.25			  10.01897			  -0.02435			 0.22512
	76.50			  9.98644			  -0.06798			 0.25328
	76.75			  9.61065			  -0.08291			 0.17854
	77.00			  9.61708			  -0.17109			 0.28632
	77.25			  9.82760			  -0.02596			 0.42490
	77.50			  9.79769			  -0.14789			 0.33167
	77.75			  9.91102			  0.31069			 0.39518
	78.00			  10.00795			  -0.18349			 0.23176
	78.25			  9.90787			  -0.44849			 0.31757
	78.50			  9.51726			  -0.84921			 0.06249
	78.75			  9.79113			  -0.62784			 -0.07176
	79.00			  9.90656			  -0.52128			 -0.08840
	79.25			  9.65289			  -0.25720			 -0.16516
	79.50			  9.68095			  -0.30359			 -0.17629
	79.75			  9.44105			  0.07600			 -0.02355
	80.00			  9.62718			  0.02617			 -0.17410
	80.25			  9.62600			  -0.29555			 0.26098
	80.50			  9.40079			  -0.18854			 0.16067
	80.75			  9.30923			  0.02755			 0.21220
	81.00			  9.32681			  0.05327			 0.26693
	81.25			  9.29992			  0.23629			 -0.21838
	81.50			  9.10265			  0.44618			 0.00607
	81.75			  9.02041			  0.05005			 -0.02394
	82.00			  9.12928			  0.00137			 -0.13690
	82.25			  9.06317			  0.39773			 -0.12611
	82.50			  9.10973			  0.28796			 -0.40271
	82.75			  9.15302			  0.62599			 -0.12150
	83.00			  9.54402			  0.39359			 -0.15359
	83.25			  9.45260			  0.09001			 -0.14476
	83.50			  9.27198			  -0.00207			 -0.15859
	83.75			  9.32983			  -0.11919			 0.03141
	84.00			  9.44866			  0.22297			 0.02922
	84.25			  9.15944			  0.37614			 -0.11043
	84.50			  8.93660			  0.13318			 -0.00843
	84.75			  9.09622			  -0.01654			 -0.19242
	85.00			  9.39646			  0.35777			 -0.57017
	85.25			  9.43909			  0.33320			 -0.31886
	85.50			  9.88819			  0.21264			 -0.43924
	85.75			  9.93187			  0.26385			 -0.13532
	86.00			  10.01096			  0.28107			 0.22338
	86.25			  9.84609			  0.02732			 -0.13673
	86.50			  9.45732			  0.01492			 -0.00972
	86.75			  9.51228			  0.11895			 0.12611
	87.00			  9.44158			  0.31965			 0.12043
	87.25			  9.81907			  0.13181			 -0.09138
	87.50			  9.75821			  0.19358			 -0.03484
	87.75			  9.60422			  0.04868			 0.04822
	88.00			  9.49404			  0.02663			 0.11110
	88.25			  9.39961			  -0.20967			 0.06103
	88.50			  9.49234			  0.19817			 -0.18180
	88.75			  9.66128			  0.23859			 -0.34533
	89.00			  9.58009			  -0.07946			 -0.27025
	89.25			  9.36459			  -0.17889			 0.14853
	89.50			  9.41508			  -0.18877			 -0.06159
	89.75			  8.87954			  0.27074			 -0.43272
	90.00			  8.97476			  -0.14950			 -0.17157
	90.25			  9.41299			  0.08174			 -0.08137
	90.50			  9.13033			  -0.02136			 -0.12717
	90.75			  9.23093			  -0.24159			 -0.10981
	91.00			  9.55045			  -0.22207			 -0.11768
	91.25			  9.33901			  -0.24182			 -0.10318
	91.50			  9.29100			  -0.25513			 -0.14409
	91.75			  9.13557			  -0.13136			 0.09863
	92.00			  9.17807			  -0.15363			 0.11987
	92.25			  9.06356			  -0.39223			 -0.06614
	92.50			  9.18660			  -0.33528			 0.19264
	92.75			  9.29415			  0.25374			 0.14223
	93.00			  9.48329			  0.16005			 0.06519
	93.25			  9.87547			  -0.41542			 0.02681
	93.50			  10.22660			  -0.60281			 0.14207
	93.75			  10.06540			  -0.79249			 0.03462
	94.00			  9.91744			  -0.53943			 -0.26969
	94.25			  9.75257			  -0.79570			 0.16202
	94.50			  9.89947			  -0.84048			 0.36185
	94.75			  10.13570			  -0.62554			 0.78350
	95.00			  9.89292			  -0.26065			 0.83542
	95.25			  10.07379			  -0.18096			 0.56596
	95.50			  9.85934			  -0.67951			 0.59350
	95.75			  9.89410			  -0.90868			 0.48335
	96.00			  9.87193			  -0.86620			 0.42170
	96.25			  9.95929			  -0.70316			 0.16825
	96.50			  9.87022			  -0.69879			 0.23378
	96.75			  9.97266			  -0.64850			 0.57225
	97.00			  9.95771			  -0.61704			 0.37472
	97.25			  9.82550			  -0.21564			 0.63345
	97.50			  9.61262			  -0.33091			 0.11874
	97.75			  9.49877			  -0.34768			 0.10194
	98.00			  9.70260			  -0.11666			 0.06412
	98.25			  10.00480			  -0.19910			 -0.15156
	98.50			  10.02552			  -0.41611			 0.15814
	98.75			  10.23893			  -0.31461			 0.57855
	99.00			  10.40000			  -0.39315			 0.35095
	99.25			  10.33087			  -0.54930			 0.18978
	99.50			  10.21073			  -0.58926			 -0.12206
	99.75			  9.81605			  -0.74426			 0.15538
	100.00			  9.46217			  -0.39039			 0.12981
	100.25			  9.35645			  -0.26799			 -0.21428
	100.50			  9.48499			  -0.07900			 -0.08733
	100.75			  9.48985			  -0.49028			 -0.25294
	101.00			  9.56369			  -0.52703			 0.02990
	101.25			  9.53864			  -0.57801			 -0.14617
	101.50			  9.82668			  -0.82395			 -0.22456
	101.75			  9.71466			  -0.89376			 -0.06581
	102.00			  9.78418			  -0.81821			 -0.10121
	102.25			  9.80359			  -0.88457			 -0.14027
	102.50			  9.95732			  -0.87676			 -0.14325
	102.75			  9.74968			  -0.83635			 -0.18264
	103.00			  9.95496			  -0.53506			 0.08362
	103.25			  9.78733			  -0.01447			 -0.06631
	103.50			  9.36931			  -0.40325			 0.10475
	103.75			  9.29022			  -0.70729			 0.22968
	104.00			  9.21309			  -0.56124			 0.01534
	104.25			  9.53195			  -0.39246			 0.22271
	104.50			  9.71886			  -0.19428			 0.13015
	104.75			  9.51411			  0.31988			 -0.01242
	105.00			  9.53903			  0.03926			 -0.05069
	105.25			  9.66469			  -0.42484			 0.04715
	105.50			  9.84216			  -0.61842			 0.08413
	105.75			  9.88439			  -0.39820			 0.08958
	106.00			  10.11983			  -0.11850			 0.06103
	106.25			  10.09740			  -0.16558			 0.16477
	106.50			  10.16023			  -0.20301			 0.21731
	106.75			  9.99732			  -0.13067			 0.27643
	107.00			  9.98749			  0.16464			 -0.05238
	107.25			  9.87613			  0.37178			 0.03445
	107.50			  10.07366			  -0.10954			 0.06586
	107.75			  10.12272			  -0.13434			 0.20045
	108.00			  10.09884			  -0.29854			 0.13116
	108.25			  9.99759			  -0.11414			 -0.23277
	108.50			  10.08783			  -0.36766			 -0.22069
	108.75			  9.99693			  -0.21655			 -0.06260
	109.00			  9.51411			  0.20483			 0.06648
	109.25			  9.40000			  0.31023			 -0.10267
	109.50			  9.31041			  0.32654			 -0.04805
	109.75			  9.29756			  0.26614			 0.24946
	110.00			  9.57733			  -0.01654			 0.40383
	110.25			  9.37469			  0.07302			 0.22243
	110.50			  9.59347			  0.08312			 0.19809
	110.75			  9.67571			  -0.22666			 -0.18730
	111.00			  9.93922			  -0.06660			 0.06474
	111.25			  9.87049			  0.09690			 -0.02630
	111.50			  9.75611			  0.14995			 -0.00747
	111.75			  10.33809			  -0.01631			 -0.19113
	112.00			  10.28615			  -0.27419			 0.04383
	112.25			  10.29835			  -0.53506			 0.07879
	112.50			  10.21781			  -0.37018			 -0.15331
	112.75			  10.74273			  -0.43747			 -0.11352
	113.00			  10.53720			  -0.07900			 -0.28587
	113.25			  10.30858			  -0.28636			 -0.27143
	113.50			  10.51214			  -0.03790			 -0.15774
	113.75			  10.41521			  0.00688			 -0.59102
	114.00			  10.04021			  -0.17706			 -0.40377
	114.25			  10.39803			  0.09208			 -0.29088
	114.50			  10.26424			  0.35501			 -0.23170
	114.75			  10.22293			  0.22136			 -0.29565
	115.00			  10.16403			  0.20667			 -0.10351
	115.25			  10.10829			  -0.13802			 -0.20006
	115.50			  10.11826			  -0.21219			 -0.37641
	115.75			  10.44814			  0.03742			 -0.20096
	116.00			  10.34661			  -0.17430			 -0.06288
	116.25			  10.23263			  0.02434			 -0.15404
	116.50			  10.48329			  0.02548			 -0.11003
	116.75			  10.55530			  -0.25353			 -0.38989
	117.00			  10.58363			  0.04523			 -0.25783
	117.25			  10.65118			  -0.05397			 -0.29031
	117.50			  10.43384			  0.00068			 -0.45441
	117.75			  10.29454			  -0.04226			 -0.13246
	118.00			  10.43882			  -0.08451			 -0.45222
	118.25			  10.59097			  -0.15915			 -0.23001
	118.50			  10.79323			  -0.07234			 -0.05052
	118.75			  10.98447			  0.19794			 0.11329
	119.00			  11.10789			  0.35180			 0.40293
	119.25			  10.97909			  0.53000			 0.38315
	119.50			  10.94144			  0.51760			 0.22046
	119.75			  11.30844			  0.74563			 -0.03945
	120.00			  11.20443			  0.84345			 0.03698
	120.25			  11.17374			  1.01430			 0.02534
	120.50			  11.00519			  0.96218			 -0.20523
	120.75			  10.95509			  0.74035			 -0.34898
	121.00			  10.88845			  0.62576			 -0.29161
	121.25			  11.10409			  0.52839			 -0.14932
	121.50			  10.69564			  0.54492			 -0.42979
	121.75			  10.74850			  0.19312			 -0.21169
	122.00			  10.39396			  0.05189			 -0.00315
	122.25			  10.25860			  -0.35181			 -0.03793
	122.50			  10.28011			  -0.47628			 0.15887
	122.75			  10.23381			  -0.25353			 0.28548
	123.00			  9.98473			  -0.72612			 -0.15342
	123.25			  10.11760			  -0.84347			 0.07469
	123.50			  10.11314			  -0.52771			 0.06345
	123.75			  9.73814			  -0.19956			 -0.07418
	124.00			  9.85081			  -0.15869			 -0.08019
	124.25			  9.91416			  -0.30198			 0.35078
	124.50			  10.01031			  -0.18601			 0.50600
	124.75			  10.57209			  -0.16282			 0.28705
	125.00			  10.81920			  0.01584			 0.38933
	125.25			  10.35566			  0.07600			 0.67627
	125.50			  10.16443			  0.00826			 0.72618
	125.75			  10.01975			  -0.13894			 0.57158
	126.00			  10.18699			  -0.12929			 0.37388
	126.25			  10.16849			  0.05281			 0.34252
	126.50			  10.08743			  -0.14169			 0.71539
	126.75			  10.09557			  -0.17155			 0.68875
	127.00			  9.80399			  -0.10587			 0.71016
	127.25			  9.64633			  -0.57387			 0.73359
	127.50			  9.98749			  -0.51302			 0.83385
	127.75			  9.92610			  -0.82372			 0.67442
	128.00			  9.72004			  -0.81338			 0.32954
	128.25			  9.67164			  -0.84898			 0.07879
	128.50			  9.78995			  -0.60441			 0.14038
	128.75			  9.72765			  -0.90891			 0.52342
	129.00			  9.81763			  -1.03384			 0.16966
	129.25			  9.75598			  -1.32823			 -0.09688
	129.50			  9.62914			  -1.22673			 0.23232
	129.75			  9.69132			  -1.18149			 0.20709
	130.00			  9.55595			  -0.84944			 -0.07379
	130.25			  9.53431			  -0.49671			 -0.24086
	130.50			  9.61170			  -0.67905			 -0.06317
	130.75			  9.74339			  -0.85541			 0.03495
	131.00			  10.01110			  -0.68731			 0.04361
	131.25			  10.11393			  -0.82785			 -0.12318
	131.50			  9.98014			  -0.90570			 0.09700
	131.75			  10.10816			  -1.23178			 -0.10127
	132.00			  9.94315			  -1.10365			 0.07272
	132.25			  9.92767			  -1.08803			 0.27744
	132.50			  9.75664			  -1.10709			 0.42215
	132.75			  9.63938			  -1.02580			 0.13223
	133.00			  9.46427			  -0.95369			 0.44710
	133.25			  9.48434			  -0.82280			 0.18877
	133.50			  9.69000			  -0.53920			 0.30801
	133.75			  9.93410			  -0.61222			 -0.02338
	134.00			  10.11065			  -0.76906			 -0.25401
	134.25			  10.24575			  -1.00559			 -0.25126
	134.50			  10.11039			  -0.98263			 -0.47312
	134.75			  10.04913			  -1.01386			 -0.43277
	135.00			  9.88229			  -0.95760			 -0.56484
	135.25			  9.83219			  -0.85059			 -0.57416
	135.50			  9.81500			  -0.82923			 -0.45463
	135.75			  10.10081			  -0.63978			 -0.37826
	136.00			  10.01267			  -0.85564			 -0.14549
	136.25			  9.87350			  -1.15371			 0.12369
	136.50			  9.59360			  -0.99916			 -0.02040
	136.75			  9.58770			  -0.48661			 -0.10217
	137.00			  9.55845			  -0.52105			 0.10548
	137.25			  9.52211			  -0.64850			 0.06929
	137.50			  9.62862			  -0.51945			 0.17022
	137.75			  9.39554			  -0.53828			 0.29031
	138.00			  9.38321			  -0.48592			 0.38562
	138.25			  9.68423			  0.03559			 0.62069
	138.50			  9.62954			  0.26614			 0.41586
	138.75			  9.64462			  0.12997			 0.43277
	139.00			  9.73145			  0.12721			 0.34848
	139.25			  9.76726			  -0.14169			 0.26143
	139.50			  9.93017			  0.06062			 0.45536
	139.75			  9.75952			  -0.08589			 0.40327
	140.00			  9.88426			  -0.11253			 0.42979
	140.25			  9.68869			  0.07325			 0.61019
	140.50			  9.48224			  0.33710			 0.52876
	140.75			  9.48106			  0.52632			 0.65891
	141.00			  9.48985			  0.49532			 0.67240
	141.25			  9.35632			  0.42023			 0.58018
	141.50			  9.55123			  0.38188			 0.28323
	141.75			  9.34793			  -0.02504			 0.07856
	142.00			  9.26884			  -0.03652			 0.10998
	142.25			  9.81291			  -0.10242			 0.00916
	142.50			  9.97122			  0.07922			 0.29998
	142.75			  9.77080			  -0.07395			 0.53336
	143.00			  9.65879			  0.05235			 0.16662
	143.25			  9.27067			  0.10563			 0.17601
	143.50			  9.30451			  0.17911			 0.17668
	143.75			  9.12403			  0.37155			 0.34460
	144.00			  9.07353			  0.45973			 0.51785
	144.25			  9.32563			  0.42528			 0.51167
	144.50			  9.29887			  0.56766			 0.39731
	144.75			  9.39095			  0.65240			 0.31133
	145.00			  9.33599			  0.68845			 0.25120
	145.25			  9.32261			  0.49785			 0.07839
	145.50			  9.41758			  0.18003			 -0.12212
	145.75			  9.27133			  -0.45745			 -0.14060
	146.00			  9.74903			  -0.56538			 -0.17893
	146.25			  9.99011			  -0.12814			 -0.08070
	146.50			  9.71125			  0.34881			 0.36685
	146.75			  9.63859			  0.33940			 0.07806
	147.00			  9.57851			  0.39428			 0.05282
	147.25			  9.56671			  0.56490			 -0.05406
	147.50			  9.60055			  0.36764			 -0.35410
	147.75			  9.46978			  0.46846			 -0.23412
	148.00			  9.34242			  0.63862			 -0.11504
	148.25			  9.34767			  0.54263			 -0.58574
	148.50			  9.30005			  0.47925			 -0.79625
	148.75			  9.64764			  0.68684			 -0.45778
	149.00			  9.75218			  0.65446			 -0.55798
	149.25			  9.79113			  0.49509			 -0.35162
	149.50			  9.66692			  0.28038			 -0.40512
	149.75			  9.58494			  0.20299			 -0.51707
	150.00			  9.40721			  0.13249			 -0.51645
	150.25			  9.33796			  -0.03468			 -0.43907
	150.50			  9.46860			  -0.02894			 -0.47436
	150.75			  9.66443			  0.15798			 -0.57737
	151.00			  9.91810			  0.23744			 -0.64413
	151.25			  10.14226			  0.06291			 -0.39192
	151.50			  10.32891			  0.14237			 -0.26946
	151.75			  10.68541			  -0.13710			 -0.27919
	152.00			  10.40918			  -0.20990			 -0.19871
	152.25			  10.59491			  -0.21311			 -0.48711
	152.50			  10.45955			  -0.09439			 0.06991
	152.75			  10.49089			  -0.08520			 -0.09115
	153.00			  10.72332			  -0.17384			 -0.03141
	153.25			  10.44800			  -0.29624			 0.02304
	153.50			  10.18463			  -0.42828			 -0.03597
	153.75			  10.48434			  -0.43058			 -0.17432
	154.00			  10.48893			  -0.44229			 -0.48773
	154.25			  10.64449			  -0.39384			 -0.32150
	154.50			  10.80648			  -0.44711			 -0.02079
	154.75			  10.66652			  -0.53736			 -0.33387
	155.00			  10.70745			  -0.56905			 -0.36286
	155.25			  10.44945			  -0.54769			 -0.23524
	155.50			  10.25978			  0.09552			 0.00978
	155.75			  10.29375			  -0.09002			 -0.41844
	156.00			  10.34150			  -0.13963			 -0.23968
	156.25			  10.42531			  -0.40761			 -0.38832
	156.50			  10.43344			  -0.15869			 -0.41119
	156.75			  10.50375			  -0.23539			 -0.28941
	157.00			  10.50375			  -0.62944			 -0.27014
	157.25			  10.58205			  -0.70982			 0.02534
	157.50			  10.63531			  -0.05374			 -0.06721
	157.75			  10.27710			  -0.10656			 0.05760
	158.00			  10.40603			  -0.38327			 -0.18191
	158.25			  10.38426			  -0.33046			 -0.29784
	158.50			  10.09570			  -0.90202			 -0.21714
	158.75			  10.09766			  -0.94703			 -0.24288
	159.00			  10.12849			  -0.68226			 -0.11813
	159.25			  10.17151			  -0.37615			 0.11475
	159.50			  10.29572			  -0.25307			 -0.12414
	159.75			  10.40236			  -0.28912			 -0.19304
	160.00			  10.34071			  -0.09898			 0.17961
	160.25			  10.40616			  -0.01126			 -0.15398
	160.50			  10.21191			  -0.12470			 0.07322
	160.75			  9.88649			  -0.45997			 0.30290
	161.00			  9.83914			  -0.30060			 0.14892
	161.25			  9.66561			  -0.43173			 0.08019
	161.50			  9.64095			  -0.57984			 0.21855
	161.75			  9.65131			  -0.50383			 0.53303
	162.00			  9.44433			  -0.63587			 0.53303
	162.25			  9.55753			  -0.40715			 0.21799
	162.50			  9.54231			  -0.25973			 0.20501
	162.75			  9.67112			  -0.49809			 0.49993
	163.00			  9.34307			  -0.66228			 0.56141
	163.25			  9.10567			  -0.60372			 0.61665
	163.50			  9.05150			  -0.41726			 0.77878
	163.75			  9.22896			  -0.18831			 0.64733
	164.00			  8.97581			  -0.24664			 0.44946
	164.25			  8.61157			  0.00573			 0.36809
	164.50			  8.50454			  0.22205			 0.75113
	164.75			  8.58429			  0.20047			 0.41456
	165.00			  8.55910			  0.23078			 0.31970
	165.25			  8.75179			  0.27074			 0.53853
	165.50			  9.25782			  0.13824			 0.67189
	165.75			  9.13151			  -0.07280			 0.51403
	166.00			  9.04691			  0.27280			 0.06305
	166.25			  9.47817			  0.36627			 -0.11088
	166.50			  9.49182			  0.51507			 -0.33521
	166.75			  9.62364			  0.50658			 -0.26705