--------------TurbSim v2.00.* User Time Series Input File-----------------------
     Time series input from low-res turbsim run
--------------------------------------------------------------------------------
          3 nComp - Number of velocity components in the file
          1 nPoints - Number of time series points contained in this file (-)
          1 RefPtID - Index of the reference point (1-nPoints)
     Pointyi Pointzi ! nPoints listed in order of increasing height
       (m)     (m)
       2.73515   94.00000
--------Time Series-------------------------------------------------------------
Elapsed Time         Point01u             Point01v           Point01w
         (s)            (m/s)                (m/s)              (m/s)
	0.00			  10.05414			  -0.26132			 0.06706
	0.25			  10.06661			  -0.34601			 0.34742
	0.50			  10.41581			  -0.39034			 0.02804
	0.75			  10.64846			  -0.37080			 0.12799
	1.00			  10.96456			  -0.21278			 0.26119
	1.25			  10.95209			  -0.13840			 0.43398
	1.50			  10.95675			  0.06774			 0.19497
	1.75			  10.82295			  -0.00917			 -0.05654
	2.00			  10.71840			  0.13771			 -0.05971
	2.25			  10.96363			  0.23837			 0.14142
	2.50			  10.97342			  0.27409			 0.13267
	2.75			  10.89533			  0.36192			 0.12841
	3.00			  11.11166			  0.30435			 -0.07082
	3.25			  11.01550			  0.20159			 -0.10758
	3.50			  10.84148			  0.03643			 -0.02645
	3.75			  10.95489			  0.08623			 0.00372
	4.00			  10.97902			  0.17071			 0.15154
	4.25			  10.82691			  0.39618			 0.43323
	4.50			  10.77562			  0.48485			 0.33134
	4.75			  10.62608			  0.48254			 0.19274
	5.00			  10.52526			  0.37726			 0.21072
	5.25			  10.63552			  -0.05435			 0.01825
	5.50			  10.69788			  0.37348			 0.11413
	5.75			  10.74637			  0.29783			 0.20140
	6.00			  10.70604			  0.39113			 0.09081
	6.25			  10.64193			  0.52394			 -0.23075
	6.50			  10.61373			  0.46195			 -0.10980
	6.75			  10.41115			  0.72650			 -0.44796
	7.00			  10.73506			  0.78009			 -0.24433
	7.25			  10.76292			  0.60526			 -0.33420
	7.50			  10.63541			  0.46258			 -0.51764
	7.75			  10.55592			  0.54138			 -0.07886
	8.00			  10.45789			  0.72062			 -0.25152
	8.25			  10.34168			  0.85888			 -0.60567
	8.50			  10.25089			  0.78576			 -0.58334
	8.75			  10.40264			  0.70297			 -0.50501
	9.00			  10.60277			  0.77819			 -0.24958
	9.25			  10.91200			  0.75109			 -0.24348
	9.50			  10.76071			  0.71074			 -0.26074
	9.75			  10.76012			  0.62963			 -0.25232
	10.00			  10.94813			  0.70906			 -0.12664
	10.25			  10.98764			  0.15053			 -0.22186
	10.50			  10.95594			  -0.17643			 -0.30454
	10.75			  10.94941			  -0.33697			 -0.34134
	11.00			  10.97983			  -0.21594			 -0.34579
	11.25			  10.81327			  -0.05498			 -0.20067
	11.50			  10.82574			  -0.13651			 -0.28250
	11.75			  10.78915			  -0.28654			 -0.22796
	12.00			  11.00850			  -0.26700			 -0.04859
	12.25			  11.06900			  -0.23338			 -0.21391
	12.50			  11.06795			  -0.20984			 -0.14892
	12.75			  11.00897			  -0.14512			 -0.35785
	13.00			  11.21318			  -0.26322			 -0.05900
	13.25			  11.20444			  -0.54710			 -0.40061
	13.50			  11.11049			  -0.36324			 -0.32711
	13.75			  10.93029			  -0.20753			 -0.15663
	14.00			  10.90535			  -0.13945			 -0.27318
	14.25			  11.00711			  -0.20438			 -0.27697
	14.50			  10.93274			  -0.06674			 -0.40686
	14.75			  10.85698			  0.00848			 -0.53438
	15.00			  10.86596			  0.06144			 -0.30241
	15.25			  11.04662			  0.15663			 -0.48320
	15.50			  11.06608			  -0.08776			 -0.57005
	15.75			  10.83682			  -0.05981			 -0.40123
	16.00			  10.99743			  0.02782			 -0.48046
	16.25			  10.67795			  0.15032			 -0.57662
	16.50			  10.72993			  0.08917			 -0.62761
	16.75			  10.75884			  -0.06548			 -0.56082
	17.00			  10.81712			  0.01563			 -0.41249
	17.25			  10.52701			  -0.40989			 -0.47246
	17.50			  10.53598			  -0.22560			 -0.56730
	17.75			  10.79264			  -0.37143			 -0.45298
	18.00			  10.91491			  -0.55383			 -0.53235
	18.25			  10.80162			  -0.66709			 -0.43576
	18.50			  10.92412			  -0.24283			 -0.69256
	18.75			  10.98275			  -0.04048			 -0.45633
	19.00			  11.07506			  0.19886			 -0.24627
	19.25			  10.91060			  0.22513			 -0.24532
	19.50			  10.82738			  0.19067			 0.08452
	19.75			  10.84276			  0.22765			 0.09823
	20.00			  10.70208			  0.22891			 0.13343
	20.25			  10.58843			  0.20075			 -0.11652
	20.50			  10.65277			  0.10725			 0.16649
	20.75			  10.63716			  -0.05876			 0.09421
	21.00			  10.59531			  0.08455			 -0.06401
	21.25			  10.67131			  -0.02430			 -0.23789
	21.50			  10.81700			  -0.18547			 0.22671
	21.75			  10.76793			  -0.17769			 0.13858
	22.00			  10.91934			  -0.18841			 -0.18965
	22.25			  10.92726			  -0.13188			 -0.28241
	22.50			  10.76525			  -0.23569			 -0.18482
	22.75			  10.59053			  -0.50108			 -0.19693
	23.00			  10.58540			  -0.44771			 -0.19551
	23.25			  10.54065			  -0.55635			 -0.27119
	23.50			  10.75418			  -0.11780			 -0.44531
	23.75			  10.88472			  0.07468			 -0.23260
	24.00			  11.02750			  -0.00623			 -0.31230
	24.25			  10.86327			  -0.18463			 -0.20142
	24.50			  10.90162			  -0.07977			 -0.46007
	24.75			  10.77458			  0.01353			 -0.46045
	25.00			  10.69788			  -0.16824			 -0.40894
	25.25			  10.54834			  -0.09847			 -0.42195
	25.50			  10.65615			  -0.09889			 -0.34016
	25.75			  10.69100			  0.16314			 -0.11912
	26.00			  10.52270			  0.25938			 -0.11042
	26.25			  10.56979			  0.38588			 -0.32304
	26.50			  10.77399			  0.48086			 -0.52549
	26.75			  10.70406			  0.83598			 -0.46168
	27.00			  10.62503			  0.85994			 -0.23652
	27.25			  10.79684			  0.82800			 -0.44758
	27.50			  10.92214			  0.79542			 -0.34418
	27.75			  10.71851			  0.89166			 -0.68707
	28.00			  10.45509			  0.92276			 -0.33510
	28.25			  10.45509			  0.67670			 -0.35615
	28.50			  10.61757			  0.81602			 -0.12423
	28.75			  10.79451			  0.62522			 -0.19348
	29.00			  10.75394			  0.47455			 -0.23340
	29.25			  10.67364			  0.50103			 -0.44716
	29.50			  10.42479			  0.26926			 -0.43169
	29.75			  10.64368			  0.31717			 -0.41239
	30.00			  10.83565			  -0.09154			 -0.54564
	30.25			  10.89171			  0.05765			 -0.39702
	30.50			  10.81187			  0.01542			 -0.32025
	30.75			  10.94743			  0.13099			 -0.34470
	31.00			  11.09744			  0.44682			 -0.27574
	31.25			  10.86619			  0.46342			 -0.31812
	31.50			  10.86316			  0.56659			 -0.16126
	31.75			  10.93752			  0.44072			 -0.24901
	32.00			  11.05151			  0.36340			 -0.17546
	32.25			  10.98857			  0.64686			 0.03769
	32.50			  11.15035			  0.75508			 0.08385
	32.75			  11.04534			  0.62060			 0.10878
	33.00			  10.99568			  0.54054			 -0.00914
	33.25			  10.95081			  0.54033			 -0.07248
	33.50			  10.82947			  0.30120			 -0.16576
	33.75			  10.84672			  0.03832			 -0.23619
	34.00			  10.98263			  0.10346			 -0.01269
	34.25			  10.64706			  0.33230			 -0.20710
	34.50			  10.67236			  0.12616			 -0.00120
	34.75			  10.50020			  0.38063			 0.06200
	35.00			  10.72620			  0.38819			 0.01470
	35.25			  10.89917			  0.45753			 0.01787
	35.50			  11.04359			  0.20054			 0.07208
	35.75			  11.03030			  -0.03438			 -0.15322
	36.00			  11.00244			  0.00932			 -0.15672
	36.25			  10.98927			  -0.06674			 -0.19830
	36.50			  10.94347			  -0.08187			 -0.36457
	36.75			  11.12343			  -0.19072			 -0.31660
	37.00			  11.06422			  -0.06254			 -0.26301
	37.25			  11.08298			  0.25854			 -0.41055
	37.50			  11.11550			  0.45858			 -0.33694
	37.75			  10.97890			  0.56386			 0.00973
	38.00			  10.90512			  0.45060			 0.05774
	38.25			  10.97610			  0.43904			 -0.27749
	38.50			  10.84241			  0.44177			 -0.29059
	38.75			  10.85756			  0.20454			 -0.17437
	39.00			  10.75581			  0.14780			 0.04937
	39.25			  10.86502			  0.24383			 0.15083
	39.50			  10.84836			  0.29994			 0.21280
	39.75			  10.73296			  0.38420			 0.11890
	40.00			  10.81246			  0.17260			 0.07028
	40.25			  10.96596			  0.20622			 0.27902
	40.50			  10.93204			  0.08476			 0.24709
	40.75			  10.79789			  0.29804			 -0.02120
	41.00			  10.79964			  0.26863			 0.11455
	41.25			  10.99580			  0.36823			 0.08362
	41.50			  10.73168			  0.36382			 0.22983
	41.75			  10.97913			  0.37663			 0.00581
	42.00			  11.11993			  0.55356			 0.09554
	42.25			  11.05233			  0.69540			 0.20783
	42.50			  10.96351			  0.47140			 0.08262
	42.75			  10.78833			  0.56365			 0.15627
	43.00			  10.90127			  0.67649			 0.19378
	43.25			  10.60545			  0.60463			 0.27576
	43.50			  10.52806			  0.61114			 0.29184
	43.75			  10.41628			  0.41593			 0.11531
	44.00			  10.27571			  0.46825			 0.15949
	44.25			  10.22816			  -0.00833			 0.24231
	44.50			  10.24354			  -0.10835			 0.16398
	44.75			  10.26161			  -0.02367			 0.07383
	45.00			  10.25334			  -0.06401			 0.08698
	45.25			  10.42199			  0.27073			 0.17311
	45.50			  10.31744			  -0.04111			 0.17647
	45.75			  10.40404			  0.15705			 0.03764
	46.00			  10.62643			  0.30015			 0.20845
	46.25			  10.41558			  0.36003			 0.23749
	46.50			  10.05286			  0.42433			 0.29950
	46.75			  10.06684			  0.19634			 0.16266
	47.00			  9.98980			  0.00617			 -0.05668
	47.25			  9.95262			  -0.07032			 0.04800
	47.50			  9.91882			  0.09611			 -0.09410
	47.75			  10.02453			  -0.14827			 0.03002
	48.00			  10.22921			  -0.24893			 0.04502
	48.25			  10.20986			  -0.25124			 -0.27119
	48.50			  10.21277			  -0.04321			 -0.06888
	48.75			  9.99878			  -0.11297			 -0.40463
	49.00			  9.98456			  -0.48280			 -0.57213
	49.25			  10.00600			  -0.55341			 -0.42611
	49.50			  10.02407			  -0.26616			 -0.32190
	49.75			  9.91369			  0.04568			 -0.22465
	50.00			  9.77534			  -0.13714			 -0.31121
	50.25			  9.80995			  -0.09259			 -0.23085
	50.50			  10.05088			  -0.29431			 -0.24584
	50.75			  10.22256			  -0.07452			 -0.27635
	51.00			  10.05845			  0.09107			 -0.46116
	51.25			  10.18142			  0.06354			 -0.34063
	51.50			  10.19039			  0.00155			 -0.43282
	51.75			  10.11265			  -0.02241			 -0.30071
	52.00			  10.14249			  -0.01568			 -0.13955
	52.25			  10.14062			  0.06375			 -0.19948
	52.50			  10.08200			  0.05177			 -0.22157
	52.75			  9.96008			  0.06333			 -0.12967
	53.00			  9.94329			  -0.15416			 -0.24844
	53.25			  9.82919			  -0.27687			 -0.25752
	53.50			  9.85914			  -0.35252			 -0.51839
	53.75			  9.72102			  -0.36933			 -0.62672
	54.00			  9.82685			  0.03601			 -0.53334
	54.25			  9.72708			  -0.45023			 -0.38396
	54.50			  9.80925			  -0.39392			 -0.39829
	54.75			  9.76496			  -0.46809			 -0.54138
	55.00			  9.79608			  -0.36681			 -0.38893
	55.25			  9.89073			  -0.21615			 -0.46291
	55.50			  10.06684			  -0.14029			 -0.39456
	55.75			  10.05181			  -0.10940			 -0.17536
	56.00			  10.13002			  -0.18568			 -0.44418
	56.25			  9.86520			  -0.03564			 -0.06832
	56.50			  9.69899			  0.01794			 -0.04987
	56.75			  9.67487			  0.08518			 -0.09485
	57.00			  9.31925			  -0.10268			 -0.00550
	57.25			  9.32007			  -0.00644			 0.19236
	57.50			  9.54048			  -0.06758			 0.41374
	57.75			  9.57404			  -0.19450			 0.11573
	58.00			  9.64165			  0.16776			 0.23011
	58.25			  9.50166			  0.15263			 0.27070
	58.50			  9.52148			  0.24278			 0.40328
	58.75			  9.58080			  0.05051			 0.47490
	59.00			  9.57463			  -0.04909			 0.08887
	59.25			  9.44688			  -0.02135			 -0.13917
	59.50			  9.29244			  0.07299			 -0.22725
	59.75			  9.22449			  0.10052			 -0.35095
	60.00			  8.99243			  0.13141			 -0.19248
	60.25			  8.96667			  0.14486			 -0.32971
	60.50			  9.18206			  0.15326			 -0.53135
	60.75			  9.08264			  -0.07473			 -0.55813
	61.00			  9.13358			  0.08119			 -0.41239
	61.25			  9.36867			  -0.21131			 -0.21316
	61.50			  9.37473			  -0.11844			 -0.31258
	61.75			  9.47159			  0.01290			 -0.46121
	62.00			  9.48977			  -0.11444			 -0.34532
	62.25			  9.54700			  0.19949			 -0.12782
	62.50			  9.67883			  -0.12264			 -0.20696
	62.75			  9.73314			  -0.03312			 -0.26093
	63.00			  9.83455			  -0.07158			 -0.24409
	63.25			  9.86404			  -0.06842			 -0.27995
	63.50			  9.70645			  -0.20753			 -0.54777
	63.75			  9.63967			  -0.17412			 -0.32138
	64.00			  9.91602			  -0.19387			 -0.40785
	64.25			  9.98875			  -0.14008			 -0.51262
	64.50			  9.76718			  -0.05813			 -0.26897
	64.75			  9.64083			  -0.34496			 -0.27498
	65.00			  9.95460			  -0.22707			 -0.52346
	65.25			  9.97873			  0.01773			 -0.23170
	65.50			  10.09225			  0.12322			 -0.33363
	65.75			  10.13363			  0.22744			 -0.49380
	66.00			  10.07174			  -0.08124			 -0.19911
	66.25			  10.02302			  -0.17391			 -0.17546
	66.50			  9.94318			  -0.06086			 -0.01141
	66.75			  9.97663			  -0.13230			 0.06933
	67.00			  10.10787			  -0.27141			 0.06224
	67.25			  10.02465			  -0.16866			 0.15698
	67.50			  9.74830			  0.00722			 0.20618
	67.75			  9.71613			  -0.03543			 0.02804
	68.00			  9.87441			  0.07404			 -0.00995
	68.25			  9.82406			  0.04189			 -0.02579
	68.50			  9.87558			  -0.22728			 0.09161
	68.75			  10.08748			  -0.27372			 0.15542
	69.00			  9.86963			  0.16020			 -0.20611
	69.25			  9.97185			  0.33692			 -0.11538
	69.50			  9.94399			  0.19298			 -0.07432
	69.75			  10.23352			  0.24005			 0.06280
	70.00			  10.27362			  0.15894			 0.07742
	70.25			  10.51535			  0.29573			 0.19620
	70.50			  10.44647			  0.35793			 0.15693
	70.75			  10.21277			  0.35163			 0.09119
	71.00			  10.06824			  0.71894			 0.16195
	71.25			  10.05391			  0.91436			 0.24960
	71.50			  9.96602			  0.53360			 0.30485
	71.75			  10.02617			  0.43379			 0.25622
	72.00			  9.71135			  0.61976			 0.01323
	72.25			  9.76228			  0.52436			 0.12335
	72.50			  9.65680			  0.46909			 -0.16893
	72.75			  9.75657			  0.41025			 -0.20128
	73.00			  9.49933			  0.47392			 0.08787
	73.25			  9.60551			  0.40416			 -0.06959
	73.50			  9.36809			  0.67103			 -0.08549
	73.75			  9.47054			  0.54075			 -0.01430
	74.00			  9.18358			  0.50061			 -0.08785
	74.25			  9.36063			  0.39071			 -0.03454
	74.50			  9.65051			  0.60715			 -0.05086
	74.75			  9.91334			  0.81476			 0.04052
	75.00			  10.13958			  0.95512			 -0.14726
	75.25			  10.12139			  0.76454			 0.06271
	75.50			  10.46372			  0.44598			 0.16167
	75.75			  10.51745			  0.62375			 0.47395
	76.00			  10.68180			  0.37747			 0.44571
	76.25			  10.77073			  -0.05056			 0.05902
	76.50			  10.74777			  0.01584			 -0.09883
	76.75			  11.08357			  0.17344			 -0.14064
	77.00			  11.05862			  0.15705			 -0.14088
	77.25			  10.75814			  0.05576			 0.08475
	77.50			  10.57666			  0.54180			 0.20537
	77.75			  10.43353			  0.03769			 0.24936
	78.00			  10.32408			  0.08035			 0.31298
	78.25			  10.34157			  0.33419			 -0.00129
	78.50			  10.35754			  0.29699			 -0.12711
	78.75			  10.36674			  0.26568			 -0.16954
	79.00			  10.03129			  0.00953			 -0.21122
	79.25			  10.09330			  -0.06065			 -0.23184
	79.50			  10.10671			  -0.33172			 -0.03918
	79.75			  10.02512			  -0.56055			 -0.09429
	80.00			  10.29809			  -0.29011			 -0.27857
	80.25			  10.24063			  -0.23170			 -0.14305
	80.50			  10.44880			  0.10914			 -0.05994
	80.75			  10.41908			  0.14654			 -0.08937
	81.00			  10.49449			  -0.02388			 -0.18137
	81.25			  10.49088			  0.23416			 -0.12006
	81.50			  10.05076			  0.17974			 -0.24366
	81.75			  10.11428			  -0.14071			 -0.36320
	82.00			  10.01859			  -0.17349			 -0.29972
	82.25			  9.86578			  -0.30587			 -0.25681
	82.50			  9.98992			  -0.03249			 -0.33709
	82.75			  10.16638			  -0.01064			 -0.31783
	83.00			  10.04353			  0.06144			 -0.17787
	83.25			  9.89737			  0.04631			 -0.21651
	83.50			  9.78070			  -0.07515			 -0.09736
	83.75			  9.91532			  0.32389			 -0.05058
	84.00			  9.85122			  -0.00896			 0.26526
	84.25			  9.85273			  0.06816			 0.19336
	84.50			  10.07151			  -0.27519			 0.02544
	84.75			  9.69981			  -0.29452			 -0.12134
	85.00			  9.71752			  -0.32667			 -0.12182
	85.25			  9.51145			  -0.59123			 -0.16798
	85.50			  9.56041			  -0.54080			 0.00240
	85.75			  9.57288			  -0.69314			 0.06129
	86.00			  9.69480			  -0.64502			 0.11020
	86.25			  9.58022			  -0.55488			 -0.03757
	86.50			  9.59642			  -0.55509			 0.08489
	86.75			  9.81473			  -0.53281			 0.41866
	87.00			  9.84166			  -0.43027			 0.20045
	87.25			  9.70762			  -0.61182			 0.08433
	87.50			  9.99633			  -0.25271			 -0.13577
	87.75			  9.93782			  -0.30440			 -0.06803
	88.00			  9.73746			  -0.50276			 -0.00526
	88.25			  9.73979			  -0.31869			 -0.06732
	88.50			  9.91835			  -0.10730			 -0.06425
	88.75			  9.70342			  -0.21888			 0.12302
	89.00			  9.63139			  -0.45401			 -0.23274
	89.25			  9.71962			  -0.23296			 -0.22640
	89.50			  9.72848			  -0.06254			 -0.31282
	89.75			  10.16697			  0.27094			 -0.02589
	90.00			  10.04318			  0.11103			 -0.03336
	90.25			  9.96358			  0.23038			 -0.11827
	90.50			  10.32245			  0.14003			 0.18361
	90.75			  10.14610			  0.22366			 0.12099
	91.00			  10.23643			  0.27115			 0.12799
	91.25			  10.09260			  0.38525			 -0.08128
	91.50			  10.23643			  0.03874			 -0.39716
	91.75			  10.30054			  -0.01988			 -0.32578
	92.00			  10.42374			  -0.08776			 -0.26112
	92.25			  10.46815			  -0.16193			 0.04544
	92.50			  10.45381			  -0.08418			 -0.12655
	92.75			  10.44682			  -0.16424			 -0.19225
	93.00			  10.60487			  -0.36912			 -0.43500
	93.25			  10.58739			  -0.43994			 -0.32280
	93.50			  10.66746			  -0.40106			 -0.36031
	93.75			  10.81502			  -0.23401			 -0.24683
	94.00			  10.54636			  -0.06611			 -0.51575
	94.25			  10.62317			  0.14108			 -0.44247
	94.50			  10.62608			  0.43148			 -0.38131
	94.75			  10.51372			  0.16398			 -0.53254
	95.00			  10.47071			  -0.09658			 -0.48694
	95.25			  10.78180			  -0.33445			 -0.65472
	95.50			  10.73821			  -0.44351			 -0.28912
	95.75			  10.38388			  -0.49478			 -0.30473
	96.00			  10.25555			  -0.43594			 -0.27143
	96.25			  10.37234			  -0.57022			 0.06309
	96.50			  10.25951			  -0.55088			 -0.13246
	96.75			  10.23131			  -0.93942			 0.01758
	97.00			  10.32350			  -1.05373			 -0.11784
	97.25			  10.11172			  -0.71248			 -0.10318
	97.50			  10.15927			  -0.40589			 -0.29513
	97.75			  10.16335			  -0.27456			 -0.24452
	98.00			  10.04901			  -0.39055			 -0.12692
	98.25			  10.21942			  -0.25439			 -0.14561
	98.50			  9.93875			  -0.03018			 0.01091
	98.75			  9.88933			  0.14150			 -0.02428
	99.00			  9.84807			  0.23816			 0.14989
	99.25			  9.92395			  0.09716			 0.03452
	99.50			  9.95682			  -0.01526			 -0.16689
	99.75			  10.02628			  -0.28717			 -0.14991
	100.00			  10.18923			  -0.14029			 -0.06860
	100.25			  10.23305			  -0.12705			 -0.02702
	100.50			  10.16743			  -0.33907			 0.00585
	100.75			  9.99073			  -0.46179			 -0.27011
	101.00			  9.76963			  -0.54227			 -0.30913
	101.25			  9.68291			  -0.45065			 -0.41457
	101.50			  9.53150			  -0.10814			 -0.57255
	101.75			  9.70622			  -0.29894			 -0.36651
	102.00			  10.03001			  -0.28297			 -0.19239
	102.25			  9.91882			  -0.23737			 0.11384
	102.50			  9.86975			  0.02950			 0.10452
	102.75			  10.02698			  -0.12075			 0.25774
	103.00			  10.14354			  -0.31827			 0.25471
	103.25			  10.29285			  -0.15983			 0.05159
	103.50			  10.23177			  0.27766			 -0.01558
	103.75			  9.96637			  0.13393			 0.25305
	104.00			  9.94143			  0.20265			 0.08740
	104.25			  9.95961			  0.30939			 -0.01004
	104.50			  10.13666			  0.30330			 0.07761
	104.75			  10.19168			  0.16902			 0.07406
	105.00			  10.29786			  0.04904			 0.16956
	105.25			  9.99481			  -0.01589			 0.04062
	105.50			  9.97208			  0.03748			 -0.15389
	105.75			  10.02803			  0.23248			 -0.26585
	106.00			  10.00320			  0.21147			 -0.25672
	106.25			  10.09750			  0.19823			 -0.06231
	106.50			  10.12699			  0.50313			 -0.31897
	106.75			  9.97220			  0.50670			 -0.35620
	107.00			  9.83781			  0.38462			 -0.11042
	107.25			  9.49653			  0.37243			 -0.00389
	107.50			  9.40387			  0.47434			 -0.05469
	107.75			  9.59048			  0.50313			 -0.18373
	108.00			  9.79853			  0.41257			 -0.24910
	108.25			  9.86707			  0.93768			 -0.08062
	108.50			  9.58990			  0.84544			 0.14922
	108.75			  9.41215			  0.62795			 -0.00493
	109.00			  9.59596			  0.34911			 -0.38226
	109.25			  9.41215			  0.32011			 -0.58041
	109.50			  9.36028			  0.14885			 -0.03289
	109.75			  9.71065			  0.35667			 -0.14939
	110.00			  9.49467			  0.37012			 -0.41381
	110.25			  9.34653			  0.43946			 -0.31064
	110.50			  9.59899			  0.40584			 0.01673
	110.75			  9.68734			  0.20517			 0.09005
	111.00			  9.74527			  -0.01211			 0.03925
	111.25			  9.85996			  -0.04468			 -0.08492
	111.50			  9.83490			  -0.05750			 0.13537
	111.75			  9.69037			  -0.39854			 0.23503
	112.00			  9.84620			  -0.50213			 0.19974
	112.25			  9.80063			  -0.42355			 0.17297
	112.50			  9.56076			  -0.55509			 0.06938
	112.75			  9.84982			  -0.82973			 0.06474
	113.00			  9.72009			  -0.66183			 0.13007
	113.25			  9.83385			  -0.80304			 0.09317
	113.50			  9.75622			  -0.87028			 0.01054
	113.75			  9.83187			  -0.45864			 0.23664
	114.00			  9.74200			  -0.38131			 -0.01690
	114.25			  9.70703			  -0.45107			 -0.02054
	114.50			  9.81718			  -0.26280			 0.15150
	114.75			  9.71345			  -0.49856			 0.21914
	115.00			  9.77475			  -0.38320			 0.22926
	115.25			  9.82895			  -0.35420			 0.13565
	115.50			  9.62568			  -0.13272			 0.04819
	115.75			  9.55621			  -0.10289			 0.19421
	116.00			  9.49525			  0.00575			 -0.08232
	116.25			  9.70051			  0.02845			 0.08944
	116.50			  9.71974			  0.14381			 0.19170
	116.75			  9.57474			  0.18226			 0.33214
	117.00			  9.45434			  0.11586			 0.21795
	117.25			  9.45189			  -0.10898			 0.30490
	117.50			  9.59234			  -0.02661			 0.42731
	117.75			  9.65202			  -0.12810			 0.22623
	118.00			  9.81100			  0.08014			 0.11365
	118.25			  9.84364			  0.23227			 0.20159
	118.50			  9.94493			  0.18541			 0.30594
	118.75			  10.04213			  0.23185			 0.28739
	119.00			  10.06043			  0.46636			 0.08650
	119.25			  10.03374			  0.51994			 0.12212
	119.50			  10.05088			  0.39660			 0.20495
	119.75			  10.04295			  0.42328			 0.07927
	120.00			  10.04004			  0.19844			 0.33351
	120.25			  9.97546			  0.35541			 0.04308
	120.50			  9.89469			  0.44093			 0.18120
	120.75			  9.64386			  0.45879			 0.38138
	121.00			  9.54525			  0.42055			 0.07487
	121.25			  9.35014			  0.45375			 0.06252
	121.50			  9.54409			  0.72398			 -0.06326
	121.75			  9.64444			  0.77399			 0.14189
	122.00			  9.51938			  0.65464			 -0.17687
	122.25			  9.45586			  0.42959			 -0.03355
	122.50			  9.31564			  0.36928			 0.23257
	122.75			  9.47544			  0.39513			 0.07832
	123.00			  9.32007			  -0.04783			 -0.04254
	123.25			  9.28312			  -0.22245			 0.10363
	123.50			  9.31412			  0.00722			 0.26351
	123.75			  9.50726			  0.21967			 0.08702
	124.00			  9.47474			  0.20075			 0.17108
	124.25			  9.60796			  0.29825			 -0.02627
	124.50			  9.81392			  0.44997			 0.17761
	124.75			  9.79026			  0.07783			 0.11498
	125.00			  9.77102			  0.17197			 -0.21623
	125.25			  9.46308			  0.28733			 0.07108
	125.50			  9.54106			  0.27451			 0.18290
	125.75			  9.49758			  0.30645			 0.11417
	126.00			  9.53546			  0.04189			 0.01791
	126.25			  9.69585			  0.04379			 0.11190
	126.50			  10.04295			  -0.16382			 0.20230
	126.75			  9.88385			  -0.16929			 0.52480
	127.00			  10.03374			  -0.07494			 0.72848
	127.25			  10.22070			  0.09653			 0.53223
	127.50			  10.12885			  0.02172			 0.10519
	127.75			  10.10694			  -0.06023			 0.17354
	128.00			  10.11067			  -0.35273			 0.17955
	128.25			  10.07011			  -0.74610			 0.01091
	128.50			  10.04703			  -0.69020			 0.25797
	128.75			  9.92604			  -0.53386			 0.20556
	129.00			  9.75960			  -0.62107			 0.12226
	129.25			  9.90017			  -0.57526			 0.30825
	129.50			  9.82347			  -0.61287			 0.29151
	129.75			  9.71076			  -0.31281			 0.25215
	130.00			  9.56274			  -0.16950			 0.23801
	130.25			  9.64841			  0.06123			 0.21181
	130.50			  9.81054			  0.22135			 0.04119
	130.75			  9.99540			  0.15705			 -0.02707
	131.00			  10.22326			  0.11292			 -0.27006
	131.25			  10.38703			  0.08644			 -0.33817
	131.50			  10.19016			  0.29720			 -0.44456
	131.75			  10.15601			  0.27115			 0.01143
	132.00			  10.18387			  0.10241			 0.37613
	132.25			  10.06486			  0.17533			 0.05164
	132.50			  10.15321			  0.14570			 -0.20913
	132.75			  10.31464			  -0.18925			 -0.22110
	133.00			  10.00810			  -0.13714			 -0.13965
	133.25			  9.81776			  0.04631			 -0.18411
	133.50			  9.95542			  0.04274			 -0.09528
	133.75			  10.00868			  0.10746			 -0.18657
	134.00			  10.26476			  0.26568			 -0.18326
	134.25			  10.16091			  0.27451			 0.11592
	134.50			  10.01964			  0.06459			 0.20022
	134.75			  9.80844			  0.22345			 -0.12375
	135.00			  9.41669			  0.17743			 -0.25856
	135.25			  9.31494			  0.33839			 -0.09495
	135.50			  9.21517			  0.07804			 0.20883
	135.75			  9.59572			  0.21336			 0.33593
	136.00			  9.45271			  0.25077			 0.27074
	136.25			  9.36727			  0.36634			 0.18532
	136.50			  9.34419			  0.06564			 0.19307
	136.75			  9.43569			  -0.18126			 0.15438
	137.00			  9.46588			  0.15410			 0.44174
	137.25			  9.69748			  0.25119			 0.49174
	137.50			  9.75529			  0.47708			 0.17420
	137.75			  10.03980			  0.54285			 0.16796
	138.00			  9.89865			  0.36108			 0.27907
	138.25			  9.81858			  0.53717			 0.17032
	138.50			  9.77732			  0.50544			 0.23205
	138.75			  9.82872			  0.66893			 0.33091
	139.00			  9.63116			  0.87044			 0.22472
	139.25			  9.53581			  0.71515			 0.02217
	139.50			  9.78175			  0.76685			 0.38408
	139.75			  9.70004			  0.59013			 0.46232
	140.00			  9.88024			  0.62564			 0.53786
	140.25			  10.27175			  0.78828			 0.58104
	140.50			  10.39448			  0.97362			 0.20603
	140.75			  10.14797			  1.17681			 0.19525
	141.00			  10.16242			  0.86792			 0.29491
	141.25			  10.32991			  0.96710			 0.22302
	141.50			  10.25380			  1.12953			 0.11876
	141.75			  10.18317			  0.72608			 -0.13667
	142.00			  10.24995			  0.77945			 0.05826
	142.25			  10.22186			  0.86834			 0.31890
	142.50			  10.04610			  0.93852			 0.49850
	142.75			  9.94842			  0.78912			 0.58033
	143.00			  9.84026			  0.65653			 0.37708
	143.25			  9.81951			  0.67313			 0.44354
	143.50			  9.65342			  0.56302			 0.09265
	143.75			  9.81217			  0.68826			 0.08433
	144.00			  9.75307			  0.73323			 0.01290
	144.25			  9.87942			  0.73596			 0.04630
	144.50			  9.94166			  0.67355			 -0.24863
	144.75			  9.94481			  0.58697			 -0.09779
	145.00			  9.83746			  0.66178			 0.19672
	145.25			  9.82394			  0.48296			 0.01271
	145.50			  9.73909			  0.56008			 -0.13643
	145.75			  9.86905			  0.71473			 -0.00129
	146.00			  9.93024			  0.62102			 -0.03610
	146.25			  10.11964			  0.37873			 0.09885
	146.50			  10.28795			  0.52730			 0.15211
	146.75			  10.38889			  0.65064			 0.21866
	147.00			  10.40707			  0.33188			 0.14667
	147.25			  10.39064			  0.37180			 -0.00101
	147.50			  10.27665			  0.53255			 -0.14712
	147.75			  10.20170			  0.26148			 0.00287
	148.00			  10.03642			  0.21609			 0.10041
	148.25			  9.94761			  0.27913			 0.11261
	148.50			  9.56250			  -0.12369			 0.06701
	148.75			  9.46460			  -0.13777			 0.41587
	149.00			  9.43336			  -0.22203			 0.22604
	149.25			  9.41937			  -0.06170			 0.04043
	149.50			  9.22053			  -0.12726			 0.41038
	149.75			  9.28044			  -0.15941			 0.32774
	150.00			  9.47381			  0.01500			 0.13243
	150.25			  9.50889			  -0.04132			 0.18863
	150.50			  9.54397			  -0.26826			 0.09838
	150.75			  9.53465			  -0.16130			 0.30367
	151.00			  9.64235			  -0.04951			 0.18972
	151.25			  9.61076			  -0.42270			 0.24359
	151.50			  9.74328			  -0.25964			 0.45394
	151.75			  9.83991			  -0.18526			 0.43356
	152.00			  9.67708			  -0.08145			 0.35229
	152.25			  9.69701			  -0.27351			 0.38323
	152.50			  9.74375			  -0.01526			 0.54150
	152.75			  9.81636			  0.07489			 0.68298
	153.00			  9.92150			  0.13961			 0.57215
	153.25			  9.88362			  0.21946			 0.53540
	153.50			  9.96055			  0.30246			 0.50233
	153.75			  9.70132			  0.38903			 0.68161
	154.00			  9.73664			  0.28838			 0.41885
	154.25			  9.84527			  0.25224			 0.24780
	154.50			  9.86310			  0.51364			 0.26861
	154.75			  10.07057			  0.29363			 0.30646
	155.00			  10.18410			  0.21483			 0.33725
	155.25			  10.01941			  -0.02766			 0.24019
	155.50			  10.12069			  -0.06968			 0.26975
	155.75			  10.07395			  0.27997			 0.21606
	156.00			  10.38994			  0.10641			 0.16105
	156.25			  10.12629			  -0.11087			 0.18773
	156.50			  10.17559			  -0.27372			 0.04317
	156.75			  10.20322			  0.07657			 -0.09377
	157.00			  10.19319			  -0.04825			 0.01758
	157.25			  10.40859			  0.04631			 0.19407
	157.50			  10.44612			  0.15347			 0.27117
	157.75			  10.23422			  0.27115			 0.28526
	158.00			  10.25765			  0.40920			 0.01853
	158.25			  10.30101			  0.37411			 -0.04386
	158.50			  10.39518			  0.03349			 -0.05573
	158.75			  10.21872			  0.16293			 -0.03237
	159.00			  10.03642			  0.06354			 0.11706
	159.25			  10.00985			  0.03055			 -0.10483
	159.50			  10.18049			  -0.07536			 -0.17792
	159.75			  9.98980			  -0.19177			 -0.20355
	160.00			  10.07360			  0.06564			 -0.20762
	160.25			  10.07267			  -0.04909			 -0.36987
	160.50			  9.87429			  -0.09721			 -0.17702
	160.75			  9.87942			  -0.01337			 -0.01534
	161.00			  10.15764			  0.14024			 -0.04698
	161.25			  10.13620			  0.13078			 -0.08530
	161.50			  9.91124			  -0.20837			 -0.13638
	161.75			  9.87115			  -0.28087			 -0.00484
	162.00			  9.74527			  -0.35798			 0.03414
	162.25			  9.71345			  -0.50045			 0.15306
	162.50			  9.71974			  -0.32352			 -0.04263
	162.75			  10.04447			  -0.17139			 -0.00086
	163.00			  9.90332			  -0.30146			 0.10618
	163.25			  9.82767			  -0.20018			 -0.01255
	163.50			  10.03199			  -0.34475			 -0.15374
	163.75			  9.94563			  -0.14260			 -0.42493
	164.00			  9.82091			  0.15600			 -0.35520
	164.25			  10.09237			  -0.09175			 -0.10237
	164.50			  10.14645			  -0.08481			 0.10623
	164.75			  10.00962			  0.15221			 0.05911
	165.00			  10.19867			  0.23816			 0.27699
	165.25			  10.23865			  0.20937			 0.21654
	165.50			  10.12198			  0.38777			 0.15031
	165.75			  10.05204			  0.55440			 0.27089
	166.00			  10.29343			  0.64854			 0.13432
	166.25			  10.18760			  0.56134			 0.10079