--------------TurbSim v2.00.* User Time Series Input File-----------------------
     Time series input from low-res turbsim run
--------------------------------------------------------------------------------
          3 nComp - Number of velocity components in the file
          1 nPoints - Number of time series points contained in this file (-)
          1 RefPtID - Index of the reference point (1-nPoints)
     Pointyi Pointzi ! nPoints listed in order of increasing height
       (m)     (m)
       -1.84356   94.00000
--------Time Series-------------------------------------------------------------
Elapsed Time         Point01u             Point01v           Point01w
         (s)            (m/s)                (m/s)              (m/s)
	0.00			  10.15161			  -0.03019			 -0.01819
	0.25			  10.34340			  -0.23767			 -0.10103
	0.50			  10.39339			  -0.39196			 0.00082
	0.75			  10.26421			  -0.41686			 -0.13791
	1.00			  10.42368			  -0.60134			 -0.15038
	1.25			  10.52402			  -0.45485			 -0.34817
	1.50			  10.60393			  -0.66339			 -0.26515
	1.75			  10.40865			  -0.64334			 -0.37493
	2.00			  10.21842			  -0.35418			 -0.26542
	2.25			  10.18285			  -0.35270			 -0.17306
	2.50			  10.16639			  -0.26088			 -0.06364
	2.75			  9.85983			  -0.37380			 0.10858
	3.00			  9.54162			  -0.13108			 -0.05146
	3.25			  9.75300			  -0.22732			 -0.02823
	3.50			  9.70602			  -0.20115			 0.16022
	3.75			  9.98998			  -0.19904			 0.05136
	4.00			  9.70794			  0.05614			 0.06180
	4.25			  9.77632			  -0.00042			 0.21676
	4.50			  10.17612			  -0.16844			 0.11119
	4.75			  9.88447			  -0.11651			 0.08636
	5.00			  9.84998			  -0.48061			 0.16869
	5.25			  9.79254			  -0.24526			 0.00655
	5.50			  10.13058			  -0.52050			 -0.22016
	5.75			  10.17456			  -0.24991			 -0.21777
	6.00			  9.96054			  -0.12348			 -0.04037
	6.25			  10.01990			  0.05002			 -0.11523
	6.50			  9.97027			  -0.09224			 -0.22671
	6.75			  10.00536			  -0.32631			 -0.26194
	7.00			  10.11640			  -0.21529			 -0.43403
	7.25			  9.96486			  -0.35607			 -0.53336
	7.50			  9.88747			  -0.14817			 -0.37048
	7.75			  10.06004			  -0.15028			 -0.32356
	8.00			  10.13839			  -0.17055			 -0.17901
	8.25			  10.07182			  -0.47913			 -0.26735
	8.50			  9.97844			  -0.47364			 -0.17571
	8.75			  10.08107			  -0.39681			 -0.10593
	9.00			  9.95525			  -0.45042			 -0.40127
	9.25			  10.13214			  -0.13276			 -0.22350
	9.50			  10.05800			  -0.22986			 -0.22272
	9.75			  9.96751			  -0.61083			 -0.06616
	10.00			  9.89589			  -0.48863			 -0.17017
	10.25			  9.86572			  -0.06670			 -0.06406
	10.50			  10.29894			  -0.21698			 -0.10131
	10.75			  10.21927			  -0.10406			 0.06368
	11.00			  10.04273			  -0.24041			 0.29817
	11.25			  10.42920			  -0.13086			 0.13635
	11.50			  10.44771			  0.00738			 0.07779
	11.75			  10.44230			  -0.17983			 0.12856
	12.00			  10.46910			  -0.18996			 0.04801
	12.25			  10.43269			  -0.17055			 -0.05622
	12.50			  10.60213			  -0.01414			 -0.33108
	12.75			  10.71641			  -0.14057			 -0.23170
	13.00			  10.47980			  -0.46478			 -0.20334
	13.25			  10.36623			  -0.52873			 -0.28375
	13.50			  10.60609			  -0.54730			 -0.29035
	13.75			  10.55466			  -0.52598			 -0.09998
	14.00			  10.47583			  -0.34805			 0.03692
	14.25			  10.67808			  -0.23577			 0.10890
	14.50			  10.74790			  -0.10110			 0.18171
	14.75			  10.77686			  -0.07134			 0.00197
	15.00			  10.66750			  0.07303			 0.34371
	15.25			  10.52017			  0.23428			 0.24264
	15.50			  10.21230			  0.05741			 0.41698
	15.75			  10.19920			  -0.32779			 0.32259
	16.00			  10.29509			  -0.29149			 0.21630
	16.25			  10.28079			  -0.21403			 0.08709
	16.50			  10.55514			  -0.39280			 -0.12857
	16.75			  10.53580			  -0.21297			 -0.06983
	17.00			  10.51633			  -0.19060			 -0.12408
	17.25			  10.53712			  -0.36452			 -0.01764
	17.50			  10.51729			  -0.42826			 -0.06099
	17.75			  10.81183			  -0.33919			 -0.13636
	18.00			  10.77121			  -0.04243			 0.08416
	18.25			  10.68445			  0.06015			 -0.08367
	18.50			  11.03979			  0.26700			 -0.21915
	18.75			  11.07332			  0.13192			 -0.11029
	19.00			  10.99148			  0.15745			 0.12663
	19.25			  10.97634			  0.53928			 -0.15047
	19.50			  11.12091			  0.62117			 -0.17338
	19.75			  11.09303			  0.11186			 -0.11803
	20.00			  11.23771			  0.20178			 -0.19015
	20.25			  11.24108			  0.11334			 -0.06956
	20.50			  11.12091			  0.34298			 -0.10483
	20.75			  11.08822			  0.43248			 -0.01558
	21.00			  11.42746			  0.43965			 -0.13315
	21.25			  11.37182			  0.45401			 -0.35797
	21.50			  11.44873			  0.41897			 -0.19074
	21.75			  11.39261			  0.60619			 -0.03212
	22.00			  11.61721			  0.46329			 -0.08005
	22.25			  11.71191			  0.19313			 -0.19464
	22.50			  11.76646			  0.34193			 -0.20627
	22.75			  11.72140			  -0.04981			 -0.32251
	23.00			  11.80444			  0.14331			 -0.43174
	23.25			  11.82487			  0.13656			 -0.15125
	23.50			  11.97244			  -0.00992			 -0.27761
	23.75			  11.99599			  0.10912			 -0.15574
	24.00			  11.93735			  0.22964			 -0.20073
	24.25			  11.77656			  -0.28389			 -0.11881
	24.50			  11.64209			  -0.12918			 0.00430
	24.75			  11.27244			  -0.09984			 -0.15294
	25.00			  11.34070			  0.07303			 -0.15028
	25.25			  11.38444			  0.02490			 -0.22520
	25.50			  11.28157			  0.09118			 -0.12289
	25.75			  11.24456			  0.24505			 -0.07826
	26.00			  11.11694			  0.32483			 -0.06484
	26.25			  10.95579			  0.37802			 -0.06965
	26.50			  10.95856			  -0.01520			 -0.01508
	26.75			  11.03390			  0.25349			 0.01594
	27.00			  11.19133			  0.55827			 -0.22249
	27.25			  11.25910			  0.59943			 -0.36411
	27.50			  11.19265			  0.48989			 -0.20829
	27.75			  11.24697			  0.10891			 -0.13448
	28.00			  11.18003			  -0.06923			 -0.06704
	28.25			  10.81002			  0.10701			 -0.15015
	28.50			  11.11983			  0.15640			 -0.14071
	28.75			  11.07428			  0.15555			 0.06281
	29.00			  10.90905			  -0.08527			 0.26243
	29.25			  10.87131			  0.00549			 0.35815
	29.50			  10.88850			  -0.06269			 0.42348
	29.75			  10.55935			  -0.08126			 0.39498
	30.00			  10.28896			  -0.06353			 0.27306
	30.25			  10.47691			  0.07239			 0.36548
	30.50			  10.48532			  0.20684			 0.22775
	30.75			  10.55562			  0.03715			 0.11183
	31.00			  10.26385			  -0.11672			 0.02822
	31.25			  10.47331			  -0.02617			 0.10533
	31.50			  10.54913			  0.19545			 0.03170
	31.75			  10.65068			  0.16168			 0.11568
	32.00			  10.68324			  0.23070			 0.32429
	32.25			  10.76063			  0.28811			 0.46536
	32.50			  10.68601			  0.24019			 0.37482
	32.75			  10.55550			  0.43163			 0.04636
	33.00			  10.38570			  0.33222			 0.30637
	33.25			  10.42127			  0.38541			 0.20874
	33.50			  10.67928			  0.38013			 0.18954
	33.75			  10.78743			  0.19270			 0.25538
	34.00			  10.98199			  0.05973			 0.36951
	34.25			  11.02850			  -0.01140			 0.36126
	34.50			  10.83418			  -0.01520			 0.18532
	34.75			  10.76724			  -0.09942			 0.13309
	35.00			  11.01504			  0.10828			 0.22340
	35.25			  10.86134			  0.11292			 0.80166
	35.50			  10.70007			  0.26024			 0.74906
	35.75			  10.75511			  0.10532			 0.54141
	36.00			  10.91049			  -0.06776			 0.50925
	36.25			  11.10961			  0.05065			 0.63016
	36.50			  10.94197			  0.02237			 0.47782
	36.75			  11.09423			  0.02744			 0.55021
	37.00			  11.13713			  0.07598			 0.65083
	37.25			  10.90364			  0.00633			 0.72844
	37.50			  10.93656			  -0.20221			 0.55970
	37.75			  11.14085			  -0.66782			 0.86869
	38.00			  11.29311			  -0.69864			 0.95885
	38.25			  11.24636			  -0.64038			 0.74251
	38.50			  11.21440			  -0.73621			 0.63053
	38.75			  11.15215			  -0.64397			 0.61605
	39.00			  11.11706			  -0.52873			 0.48680
	39.25			  11.07416			  -0.46499			 0.49656
	39.50			  10.89042			  -0.15429			 0.46224
	39.75			  10.88309			  0.04094			 0.41111
	40.00			  10.70127			  -0.14079			 0.33680
	40.25			  10.50587			  -0.28853			 0.41922
	40.50			  10.48376			  -0.26616			 0.62819
	40.75			  10.51104			  -0.16126			 -0.02003
	41.00			  10.69791			  -0.32315			 -0.23211
	41.25			  10.58867			  -0.13741			 -0.20742
	41.50			  10.68877			  -0.04137			 -0.09613
	41.75			  10.86194			  -0.27988			 0.10157
	42.00			  10.80534			  -0.35966			 -0.24627
	42.25			  10.56355			  -0.31302			 -0.60080
	42.50			  10.58915			  -0.41834			 -0.36242
	42.75			  10.28536			  -0.77104			 -0.00834
	43.00			  10.32009			  -0.83604			 -0.36434
	43.25			  10.31084			  -0.81029			 -0.34519
	43.50			  10.06449			  -0.89578			 -0.11093
	43.75			  10.05115			  -1.16742			 -0.31500
	44.00			  9.86716			  -1.29934			 -0.26753
	44.25			  9.69640			  -1.27000			 -0.06736
	44.50			  9.82066			  -1.15412			 -0.05608
	44.75			  9.64930			  -1.22694			 0.02199
	45.00			  10.13839			  -1.02833			 -0.10483
	45.25			  10.17324			  -0.96163			 -0.11798
	45.50			  10.24931			  -0.87741			 0.21593
	45.75			  9.99791			  -0.59015			 0.07436
	46.00			  9.90634			  -0.83815			 0.07660
	46.25			  9.87630			  -0.84955			 0.25542
	46.50			  10.02194			  -0.55237			 0.04847
	46.75			  10.06148			  -0.32336			 0.06286
	47.00			  10.01954			  -0.32758			 0.25941
	47.25			  10.03576			  -0.23767			 0.38371
	47.50			  10.02495			  -0.72165			 0.33111
	47.75			  9.80744			  -0.72544			 0.21790
	48.00			  10.00632			  -0.76323			 0.20581
	48.25			  9.94371			  -0.96838			 0.23893
	48.50			  9.98193			  -0.74423			 0.47645
	48.75			  9.89865			  -0.23577			 0.39741
	49.00			  9.80864			  -0.12875			 0.19261
	49.25			  9.74399			  -0.14627			 -0.05929
	49.50			  9.92521			  0.07472			 -0.07950
	49.75			  10.08828			  0.25244			 0.19760
	50.00			  10.21710			  0.11419			 0.07046
	50.25			  10.16783			  -0.15134			 -0.30808
	50.50			  10.16759			  -0.22500			 -0.25869
	50.75			  10.12169			  -0.10680			 -0.25209
	51.00			  9.93061			  -0.05952			 -0.08316
	51.25			  9.97087			  -0.16084			 -0.26409
	51.50			  10.20196			  0.04749			 -0.24064
	51.75			  10.03084			  -0.09625			 -0.03515
	52.00			  10.14969			  0.09371			 -0.15065
	52.25			  10.10991			  0.11250			 -0.07936
	52.50			  10.19403			  0.20980			 -0.11743
	52.75			  10.25952			  0.18067			 -0.40081
	53.00			  10.13527			  0.41264			 -0.47036
	53.25			  10.31096			  0.30140			 -0.24590
	53.50			  10.02843			  0.41981			 -0.18268
	53.75			  10.10294			  0.38393			 -0.07721
	54.00			  10.22996			  0.39385			 0.09154
	54.25			  10.18754			  -0.04116			 -0.20032
	54.50			  10.29437			  -0.30056			 -0.32485
	54.75			  10.30074			  -0.18363			 -0.23711
	55.00			  10.26048			  -0.02406			 -0.18135
	55.25			  10.32141			  -0.05826			 -0.02520
	55.50			  10.20268			  0.26214			 0.13690
	55.75			  10.18478			  0.31998			 0.00476
	56.00			  10.22876			  0.13002			 0.08302
	56.25			  10.19090			  0.08295			 -0.23408
	56.50			  10.06304			  -0.43037			 -0.29672
	56.75			  10.30254			  -0.34637			 -0.07808
	57.00			  10.50575			  -0.30795			 0.06776
	57.25			  10.36275			  -0.27418			 0.25222
	57.50			  10.21073			  -0.18996			 0.33936
	57.75			  10.24198			  -0.26025			 0.08008
	58.00			  10.27815			  -0.53168			 -0.15587
	58.25			  10.16855			  -0.69484			 -0.22286
	58.50			  10.07434			  -0.70560			 -0.04381
	58.75			  10.29089			  -0.59247			 0.15027
	59.00			  10.51669			  -0.73009			 -0.07405
	59.25			  10.44350			  -0.63743			 -0.25241
	59.50			  10.28091			  -0.63680			 -0.09727
	59.75			  10.14428			  -0.52345			 -0.10951
	60.00			  10.08924			  -0.44979			 -0.05196
	60.25			  10.03769			  -0.37993			 -0.06823
	60.50			  10.11219			  -0.26954			 0.22166
	60.75			  10.51897			  -0.19292			 0.14143
	61.00			  10.61763			  -0.02871			 0.12008
	61.25			  10.49494			  -0.03103			 0.27416
	61.50			  10.56127			  -0.00254			 0.18729
	61.75			  10.56139			  -0.24062			 0.08040
	62.00			  10.29545			  -0.24273			 -0.20801
	62.25			  10.25183			  -0.01583			 -0.16829
	62.50			  10.18814			  -0.02765			 -0.05054
	62.75			  10.10294			  -0.28494			 -0.00307
	63.00			  10.02940			  -0.27460			 -0.18914
	63.25			  9.87450			  -0.25012			 -0.05883
	63.50			  9.91235			  0.00549			 0.15816
	63.75			  9.90754			  0.13888			 0.17964
	64.00			  9.94047			  0.06290			 0.01200
	64.25			  9.70133			  -0.06670			 -0.20774
	64.50			  9.55232			  -0.21888			 -0.07762
	64.75			  9.73366			  -0.13488			 -0.10424
	65.00			  9.41568			  -0.24885			 0.11248
	65.25			  9.59438			  0.09223			 0.23765
	65.50			  9.59161			  0.16970			 0.53156
	65.75			  9.50593			  -0.15809			 0.54732
	66.00			  9.57996			  -0.36705			 0.27687
	66.25			  9.58212			  -0.25350			 0.27398
	66.50			  9.65314			  -0.26320			 0.17969
	66.75			  9.86909			  -0.40652			 0.23600
	67.00			  9.97195			  -0.13889			 0.32076
	67.25			  9.92184			  -0.00591			 0.17470
	67.50			  9.88771			  -0.11630			 0.20122
	67.75			  9.84277			  -0.05066			 0.09603
	68.00			  10.01185			  -0.04032			 -0.06731
	68.25			  9.93362			  -0.00106			 -0.24091
	68.50			  9.85971			  0.03630			 -0.18694
	68.75			  9.98938			  -0.03356			 0.15078
	69.00			  9.62718			  -0.09393			 0.01855
	69.25			  9.60856			  -0.13846			 -0.19752
	69.50			  9.74687			  0.16801			 -0.17668
	69.75			  9.46640			  0.42488			 -0.10987
	70.00			  9.49608			  0.33834			 0.22120
	70.25			  9.77199			  -0.10575			 0.06881
	70.50			  9.71287			  -0.28917			 0.22711
	70.75			  10.17456			  0.24990			 0.02950
	71.00			  10.25964			  0.44451			 -0.04312
	71.25			  10.00957			  0.37106			 0.17845
	71.50			  10.12313			  0.27270			 0.36488
	71.75			  10.30687			  0.41601			 0.19311
	72.00			  10.24354			  0.42804			 0.29350
	72.25			  10.01606			  0.49305			 0.35801
	72.50			  10.21758			  0.30689			 0.39975
	72.75			  10.39556			  0.13825			 0.14885
	73.00			  10.64515			  0.25919			 0.09974
	73.25			  10.65549			  0.17856			 0.18267
	73.50			  10.58494			  0.14374			 0.15362
	73.75			  10.34352			  0.02216			 0.15825
	74.00			  10.47319			  -0.14036			 0.37973
	74.25			  10.32357			  0.03651			 0.41491
	74.50			  10.31408			  -0.14100			 0.24704
	74.75			  10.44507			  -0.04032			 0.25593
	75.00			  10.52534			  0.05213			 0.60244
	75.25			  10.44687			  -0.15387			 0.28342
	75.50			  10.46898			  -0.13361			 0.33473
	75.75			  10.38510			  -0.05952			 0.62489
	76.00			  10.41755			  -0.24864			 0.64867
	76.25			  10.47499			  -0.05805			 0.27728
	76.50			  10.49073			  -0.01499			 0.15495
	76.75			  10.53363			  -0.22184			 0.18340
	77.00			  10.68601			  -0.33117			 -0.13045
	77.25			  10.55719			  -0.33497			 -0.27303
	77.50			  10.50407			  -0.14543			 -0.14195
	77.75			  10.53099			  -0.25096			 -0.35458
	78.00			  10.66967			  -0.29444			 -0.11194
	78.25			  10.81339			  -0.23070			 0.06597
	78.50			  10.79032			  -0.28199			 -0.12829
	78.75			  10.66774			  -0.21846			 0.02194
	79.00			  10.52522			  -0.18342			 -0.23243
	79.25			  10.41623			  -0.17772			 -0.32732
	79.50			  10.33499			  -0.00971			 -0.01838
	79.75			  10.47775			  -0.05235			 0.02561
	80.00			  10.62424			  -0.16400			 -0.16650
	80.25			  10.53279			  -0.13298			 -0.14089
	80.50			  10.32261			  0.07725			 0.15692
	80.75			  10.38294			  -0.26088			 0.02634
	81.00			  10.33223			  -0.32737			 0.04448
	81.25			  10.29750			  -0.21339			 0.04274
	81.50			  10.23008			  -0.11039			 -0.03510
	81.75			  10.02663			  -0.35819			 -0.27179
	82.00			  10.20112			  -0.24526			 -0.26387
	82.25			  9.88771			  -0.26700			 -0.22135
	82.50			  9.72632			  -0.34341			 -0.36934
	82.75			  9.71791			  -0.23914			 -0.38555
	83.00			  9.88002			  0.06057			 -0.32146
	83.25			  10.18141			  -0.00064			 -0.35087
	83.50			  10.48616			  0.14331			 -0.28128
	83.75			  10.54289			  0.23682			 0.02597
	84.00			  10.46970			  0.01984			 0.07523
	84.25			  10.56620			  0.18489			 0.00710
	84.50			  10.56355			  0.07577			 0.08851
	84.75			  10.66834			  0.37190			 0.17291
	85.00			  10.68937			  0.63194			 0.21492
	85.25			  10.81892			  0.74211			 0.05630
	85.50			  10.81591			  0.92807			 0.19632
	85.75			  10.56079			  0.65262			 0.19110
	86.00			  10.75667			  0.65663			 0.19266
	86.25			  10.72807			  0.60365			 -0.01545
	86.50			  10.71209			  0.32969			 -0.03524
	86.75			  10.40421			  0.33243			 -0.10790
	87.00			  10.43293			  0.06247			 -0.12270
	87.25			  10.43509			  -0.10807			 -0.05535
	87.50			  10.47078			  0.19207			 -0.10946
	87.75			  10.41274			  0.25370			 -0.15157
	88.00			  10.24835			  -0.04496			 -0.19367
	88.25			  10.42199			  -0.21677			 -0.18772
	88.50			  10.32706			  -0.04053			 0.12842
	88.75			  10.36575			  0.08844			 0.30014
	89.00			  10.53135			  -0.19144			 0.13080
	89.25			  10.46994			  -0.24358			 0.26839
	89.50			  10.23345			  -0.45802			 0.07568
	89.75			  10.17540			  -0.19883			 0.13891
	90.00			  9.86392			  0.00950			 0.20732
	90.25			  9.95801			  -0.08527			 0.00503
	90.50			  10.24558			  -0.12179			 0.17089
	90.75			  10.19115			  -0.26595			 0.20635
	91.00			  10.17168			  -0.18785			 0.18858
	91.25			  9.89793			  -0.42826			 0.21767
	91.50			  10.04838			  -0.32758			 0.25226
	91.75			  10.03769			  -0.00845			 0.19472
	92.00			  10.30543			  0.12305			 -0.17590
	92.25			  10.22744			  -0.03947			 -0.25017
	92.50			  9.96991			  0.11904			 -0.28375
	92.75			  10.02038			  0.21613			 -0.19019
	93.00			  10.10018			  0.21085			 0.21506
	93.25			  10.50768			  0.11904			 0.04852
	93.50			  10.41406			  0.16611			 -0.14689
	93.75			  10.36263			  0.28072			 -0.10268
	94.00			  10.18381			  0.38478			 -0.29438
	94.25			  9.99815			  0.17708			 -0.48754
	94.50			  9.96739			  0.38098			 -0.23111
	94.75			  10.16615			  0.20136			 0.12471
	95.00			  10.35662			  0.23302			 0.05026
	95.25			  10.19439			  0.18975			 0.14853
	95.50			  10.06869			  0.21634			 0.32410
	95.75			  10.09994			  0.39765			 0.17108
	96.00			  10.31192			  0.51522			 0.02629
	96.25			  10.19235			  0.56946			 0.30999
	96.50			  9.96162			  0.65895			 0.36300
	96.75			  9.93710			  0.68787			 0.21598
	97.00			  10.03649			  0.67373			 0.18624
	97.25			  9.85551			  0.58909			 0.08554
	97.50			  10.06689			  0.66676			 0.19275
	97.75			  9.98493			  0.58234			 -0.07904
	98.00			  9.98794			  0.52471			 -0.04371
	98.25			  9.99106			  0.55933			 0.10194
	98.50			  9.89468			  0.82929			 -0.00161
	98.75			  10.18934			  0.87488			 -0.06649
	99.00			  10.42043			  0.60513			 -0.28636
	99.25			  10.11844			  0.58719			 0.07967
	99.50			  10.34785			  0.52746			 0.05525
	99.75			  10.50034			  0.61315			 -0.00321
	100.00			  10.47847			  0.79826			 -0.23037
	100.25			  10.43629			  0.86221			 -0.41511
	100.50			  10.44398			  0.77377			 -0.26753
	100.75			  10.37453			  0.91224			 -0.17411
	101.00			  10.35205			  0.80818			 -0.18428
	101.25			  10.52714			  0.60766			 -0.14886
	101.50			  10.82144			  0.47659			 -0.52067
	101.75			  10.78070			  0.42192			 -0.41611
	102.00			  10.92875			  0.52514			 -0.37057
	102.25			  10.93668			  0.67668			 -0.54697
	102.50			  10.76845			  0.78686			 -0.64442
	102.75			  10.77409			  0.77040			 -0.57757
	103.00			  10.96096			  0.77061			 -0.30675
	103.25			  10.98595			  0.68112			 -0.21383
	103.50			  10.78635			  0.46371			 -0.31252
	103.75			  10.56367			  0.54413			 -0.53075
	104.00			  10.53760			  0.24209			 -0.37639
	104.25			  10.48292			  0.47385			 0.01823
	104.50			  10.72194			  0.28916			 -0.09077
	104.75			  10.88645			  0.08147			 -0.11010
	105.00			  10.93476			  0.19735			 0.03999
	105.25			  10.72446			  0.07978			 0.01832
	105.50			  10.89655			  0.39322			 0.14482
	105.75			  10.75595			  0.10806			 0.25607
	106.00			  10.75042			  0.08569			 0.28319
	106.25			  10.78695			  0.19291			 0.30335
	106.50			  10.62340			  -0.00781			 -0.01054
	106.75			  10.43016			  -0.17413			 0.03344
	107.00			  10.38102			  -0.08232			 0.15101
	107.25			  10.51633			  -0.18300			 0.22821
	107.50			  10.69574			  0.03546			 0.14038
	107.75			  10.61343			  0.46182			 0.15147
	108.00			  10.41166			  0.20262			 0.03995
	108.25			  10.50743			  0.11229			 -0.10575
	108.50			  10.19307			  0.45949			 -0.15093
	108.75			  10.16038			  0.32673			 -0.19486
	109.00			  10.18177			  0.21444			 -0.01531
	109.25			  10.25928			  0.61547			 -0.08871
	109.50			  10.19619			  0.80100			 0.01447
	109.75			  10.20184			  0.41855			 -0.09365
	110.00			  10.34388			  0.35016			 -0.17892
	110.25			  10.23236			  0.40082			 0.00797
	110.50			  10.19824			  0.41200			 0.14001
	110.75			  10.31144			  0.35143			 0.23155
	111.00			  10.29041			  0.58212			 0.39947
	111.25			  10.36407			  0.62307			 0.14097
	111.50			  10.10006			  0.73367			 0.42756
	111.75			  9.99827			  0.66697			 0.41702
	112.00			  9.66552			  0.67900			 0.40914
	112.25			  9.74820			  0.91667			 0.06799
	112.50			  9.69268			  0.68703			 0.07830
	112.75			  9.68787			  0.73388			 -0.04875
	113.00			  9.43840			  0.63426			 -0.05109
	113.25			  9.34562			  0.51416			 0.04558
	113.50			  9.44104			  0.55722			 -0.04623
	113.75			  9.65302			  0.43754			 -0.05682
	114.00			  9.59390			  0.47828			 0.13131
	114.25			  9.61625			  0.40652			 0.27623
	114.50			  9.82186			  0.42256			 0.07532
	114.75			  9.73798			  0.18489			 -0.01251
	115.00			  9.76983			  -0.12137			 -0.11313
	115.25			  9.70806			  0.06480			 -0.20916
	115.50			  9.76838			  0.19249			 -0.05984
	115.75			  9.88147			  0.34256			 -0.07771
	116.00			  9.82523			  0.22225			 -0.10493
	116.25			  9.57191			  0.19967			 -0.14634
	116.50			  9.48214			  0.28515			 -0.02021
	116.75			  9.32760			  0.12854			 -0.19037
	117.00			  9.50509			  0.14099			 -0.38189
	117.25			  9.57239			  0.23449			 -0.44255
	117.50			  9.64809			  0.15640			 -0.30203
	117.75			  9.67105			  0.29127			 -0.38670
	118.00			  10.05679			  0.46435			 -0.39293
	118.25			  9.98073			  0.67542			 -0.26396
	118.50			  9.95898			  0.47469			 -0.40915
	118.75			  9.94431			  0.37042			 -0.26304
	119.00			  10.12289			  0.00738			 -0.06791
	119.25			  10.13154			  0.48102			 -0.16330
	119.50			  10.19583			  0.48925			 -0.13177
	119.75			  10.32261			  0.20431			 -0.01939
	120.00			  10.61439			  -0.15472			 0.18624
	120.25			  10.59492			  -0.29254			 -0.06397
	120.50			  10.38150			  -0.32610			 -0.19885
	120.75			  10.37188			  -0.13192			 -0.14960
	121.00			  10.36768			  -0.05024			 0.00004
	121.25			  10.45372			  0.01266			 -0.21072
	121.50			  10.21266			  0.23724			 -0.20187
	121.75			  10.20448			  0.27354			 -0.04953
	122.00			  10.46177			  0.00971			 -0.18515
	122.25			  10.49109			  0.08865			 -0.14254
	122.50			  10.34785			  0.10870			 -0.02914
	122.75			  10.30098			  0.39765			 -0.12092
	123.00			  10.28908			  0.57706			 -0.19138
	123.25			  10.16507			  0.60344			 -0.38624
	123.50			  10.21878			  0.41686			 -0.43366
	123.75			  10.27490			  -0.04201			 -0.43669
	124.00			  10.32153			  0.25940			 -0.16252
	124.25			  10.14596			  0.54097			 0.28447
	124.50			  10.17636			  0.45485			 0.20008
	124.75			  10.47871			  0.37443			 -0.19894
	125.00			  10.37501			  0.19502			 -0.32320
	125.25			  10.22347			  0.26257			 -0.14941
	125.50			  10.37236			  0.18595			 -0.24641
	125.75			  10.33223			  0.48820			 -0.31779
	126.00			  10.06124			  0.46013			 -0.24623
	126.25			  10.05679			  0.42593			 -0.11230
	126.50			  10.13094			  0.17898			 -0.03767
	126.75			  10.19247			  0.29592			 -0.24146
	127.00			  10.23381			  0.24906			 0.00265
	127.25			  10.11736			  0.31660			 0.03839
	127.50			  9.96354			  0.53780			 -0.13155
	127.75			  9.99346			  0.44113			 0.05772
	128.00			  9.88747			  0.37127			 -0.00459
	128.25			  9.73185			  0.47342			 -0.04788
	128.50			  9.99971			  0.43248			 0.04160
	128.75			  9.93410			  0.61104			 -0.02479
	129.00			  9.98265			  0.42636			 0.16205
	129.25			  9.93614			  0.29359			 0.03660
	129.50			  9.94624			  0.20368			 0.20516
	129.75			  9.98505			  0.41622			 -0.05334
	130.00			  10.22720			  0.41074			 -0.20275
	130.25			  10.48797			  0.54941			 -0.21525
	130.50			  10.64767			  0.18954			 -0.05943
	130.75			  10.44867			  -0.16738			 -0.08765
	131.00			  10.50888			  -0.19419			 -0.20275
	131.25			  10.65212			  -0.26468			 -0.15940
	131.50			  10.53327			  -0.07388			 -0.35550
	131.75			  10.63878			  0.01688			 0.00948
	132.00			  10.65176			  -0.10385			 -0.00147
	132.25			  10.77037			  -0.17709			 -0.02937
	132.50			  10.66149			  -0.15767			 -0.11111
	132.75			  10.52258			  -0.22352			 -0.22684
	133.00			  10.62040			  -0.28326			 -0.56401
	133.25			  10.81459			  -0.22416			 -0.35632
	133.50			  10.54252			  -0.20305			 -0.12756
	133.75			  10.28031			  -0.10575			 -0.17461
	134.00			  10.12313			  0.06501			 -0.32077
	134.25			  10.16266			  0.19524			 0.05401
	134.50			  10.02158			  0.34889			 0.09626
	134.75			  10.10534			  0.22964			 -0.09311
	135.00			  10.41058			  0.32357			 0.07220
	135.25			  10.26793			  0.27080			 -0.07166
	135.50			  9.94528			  0.42403			 0.14423
	135.75			  10.02231			  0.25180			 0.24567
	136.00			  10.08708			  0.09962			 0.28461
	136.25			  10.22263			  0.26953			 0.18633
	136.50			  10.23525			  0.26953			 0.16778
	136.75			  10.42656			  0.55701			 0.24580
	137.00			  10.47415			  0.24885			 0.19939
	137.25			  10.45588			  0.37274			 0.19889
	137.50			  10.30471			  0.62075			 0.44502
	137.75			  10.25099			  0.67267			 0.23197
	138.00			  9.95958			  0.56038			 0.22519
	138.25			  9.91547			  0.44219			 0.01461
	138.50			  10.06364			  0.57980			 0.14455
	138.75			  10.07951			  0.61674			 0.18954
	139.00			  9.82450			  0.78158			 0.36612
	139.25			  10.15870			  0.88269			 0.05933
	139.50			  10.17949			  0.98400			 0.15948
	139.75			  10.14464			  0.73916			 0.29272
	140.00			  10.40192			  0.70370			 0.27293
	140.25			  10.33078			  0.66022			 -0.07941
	140.50			  10.45684			  0.79488			 0.15156
	140.75			  10.52474			  0.82696			 0.01076
	141.00			  10.44038			  0.59753			 0.14633
	141.25			  10.50635			  0.82612			 -0.14098
	141.50			  10.53724			  0.70961			 0.12870
	141.75			  10.60658			  0.51775			 0.14666
	142.00			  10.66306			  0.16695			 -0.05251
	142.25			  10.45744			  0.18215			 -0.09008
	142.50			  10.41887			  0.40989			 0.16828
	142.75			  10.38955			  0.21318			 0.27274
	143.00			  10.34436			  0.14901			 0.47003
	143.25			  10.36936			  -0.00000			 0.27279
	143.50			  10.63518			  0.04474			 0.08063
	143.75			  10.71269			  0.11229			 0.27998
	144.00			  10.72074			  0.21613			 0.03899
	144.25			  10.74033			  0.28431			 -0.02406
	144.50			  10.76544			  0.32357			 -0.01407
	144.75			  10.74706			  0.42108			 0.01956
	145.00			  10.78960			  0.35143			 0.26789
	145.25			  10.67856			  0.40546			 0.15861
	145.50			  10.74153			  0.45738			 0.02639
	145.75			  10.77866			  0.23977			 0.23165
	146.00			  10.87900			  0.24378			 0.14111
	146.25			  10.80942			  0.18405			 -0.06364
	146.50			  10.68829			  -0.06227			 0.01237
	146.75			  10.45973			  -0.05615			 0.03367
	147.00			  10.77506			  -0.06797			 0.33263
	147.25			  10.98391			  0.06881			 0.24759
	147.50			  10.73143			  0.09561			 0.16397
	147.75			  10.88165			  0.19882			 0.56318
	148.00			  10.79068			  0.18152			 0.43265
	148.25			  10.71629			  0.17751			 0.32873
	148.50			  10.58939			  -0.04728			 0.16393
	148.75			  10.24078			  0.14838			 0.09126
	149.00			  10.35506			  0.24969			 0.05759
	149.25			  10.31660			  0.07239			 0.00604
	149.50			  10.33295			  -0.02575			 -0.21800
	149.75			  10.17817			  0.04369			 -0.23954
	150.00			  10.25411			  0.15197			 -0.31880
	150.25			  10.45095			  0.20410			 -0.41996
	150.50			  10.40385			  0.14374			 -0.62884
	150.75			  10.42596			  -0.10406			 -0.68941
	151.00			  10.40361			  -0.18764			 -0.52594
	151.25			  10.47715			  0.12136			 -0.23257
	151.50			  10.49770			  0.20431			 -0.32622
	151.75			  10.77361			  0.20262			 -0.37401
	152.00			  10.73768			  0.03989			 -0.35458
	152.25			  10.81267			  -0.16126			 -0.33937
	152.50			  10.85978			  -0.33729			 0.01557
	152.75			  10.88741			  -0.40948			 0.26688
	153.00			  10.86050			  -0.55828			 0.13332
	153.25			  10.93608			  -0.53949			 0.48675
	153.50			  10.64058			  -0.63891			 0.50169
	153.75			  10.65729			  -0.37148			 0.52515
	154.00			  10.61679			  -0.15999			 0.48011
	154.25			  10.49482			  -0.06776			 0.08040
	154.50			  10.26589			  -0.16421			 0.27050
	154.75			  10.26253			  -0.01203			 0.15738
	155.00			  10.22792			  -0.01372			 0.11206
	155.25			  10.28704			  -0.22247			 -0.10804
	155.50			  10.22239			  -0.18785			 -0.11849
	155.75			  10.29750			  -0.32336			 -0.12793
	156.00			  10.37993			  -0.57685			 -0.16934
	156.25			  10.33968			  -0.59099			 -0.10919
	156.50			  10.55959			  -0.77019			 0.22720
	156.75			  10.56247			  -0.72228			 0.29909
	157.00			  10.73720			  -0.68851			 0.24819
	157.25			  10.66918			  -0.70835			 -0.26455
	157.50			  10.74718			  -0.54266			 0.06684
	157.75			  10.54252			  -0.61400			 0.08302
	158.00			  10.45997			  -0.70476			 0.36122
	158.25			  10.45816			  -0.66740			 0.24585
	158.50			  10.63662			  -0.49707			 -0.07583
	158.75			  10.87492			  -0.73241			 0.10767
	159.00			  10.79464			  -1.09882			 -0.06639
	159.25			  10.83538			  -1.12014			 0.10854
	159.50			  10.70415			  -1.08679			 0.10524
	159.75			  10.69610			  -0.91731			 0.05562
	160.00			  10.52883			  -0.80122			 0.17153
	160.25			  10.61955			  -0.75521			 0.37574
	160.50			  10.52955			  -0.76217			 0.35558
	160.75			  10.34016			  -0.65875			 0.33886
	161.00			  10.31805			  -0.46541			 0.44731
	161.25			  10.60021			  -0.78328			 0.34211
	161.50			  10.79741			  -1.17840			 0.31270
	161.75			  10.74922			  -1.30441			 0.27893
	162.00			  10.57593			  -0.78243			 0.27329
	162.25			  10.56716			  -0.81916			 0.15014
	162.50			  10.64479			  -0.52894			 -0.54459
	162.75			  10.68168			  -0.66255			 -0.68039
	163.00			  10.74718			  -0.73220			 -0.48768
	163.25			  10.59360			  -0.79404			 -0.26886
	163.50			  10.46550			  -0.48820			 -0.18268
	163.75			  10.49398			  -0.32146			 -0.15129
	164.00			  10.40697			  -0.43480			 -0.15853
	164.25			  10.26457			  -0.47976			 0.16622
	164.50			  10.40180			  -0.47659			 -0.00830
	164.75			  10.48653			  -0.36747			 -0.16339
	165.00			  10.47427			  -0.26405			 0.01108
	165.25			  10.43077			  -0.42024			 0.04769