--------------TurbSim v2.00.* User Time Series Input File-----------------------
     Time series input from low-res turbsim run
--------------------------------------------------------------------------------
          3 nComp - Number of velocity components in the file
          1 nPoints - Number of time series points contained in this file (-)
          1 RefPtID - Index of the reference point (1-nPoints)
     Pointyi Pointzi ! nPoints listed in order of increasing height
       (m)     (m)
       3.19568   94.00000
--------Time Series-------------------------------------------------------------
Elapsed Time         Point01u             Point01v           Point01w
         (s)            (m/s)                (m/s)              (m/s)
	0.00			  9.74659			  -0.04145			 -0.23649
	0.25			  9.88951			  0.22099			 -0.27074
	0.50			  10.00442			  0.16448			 -0.19595
	0.75			  10.00805			  0.05802			 -0.11734
	1.00			  10.01905			  0.10467			 -0.00453
	1.25			  9.87438			  0.05391			 -0.06413
	1.50			  10.15209			  0.09481			 -0.19143
	1.75			  10.19173			  -0.15653			 -0.19618
	2.00			  10.43193			  -0.08214			 -0.01846
	2.25			  10.39842			  -0.12550			 -0.15947
	2.50			  10.34228			  -0.33286			 -0.31696
	2.75			  10.41630			  -0.36245			 -0.14362
	3.00			  10.50583			  -0.58625			 -0.16734
	3.25			  10.28338			  -0.57968			 -0.20699
	3.50			  10.19173			  -0.59776			 -0.13132
	3.75			  10.21961			  -0.38424			 -0.30051
	4.00			  10.22237			  -0.15879			 -0.49128
	4.25			  10.29614			  -0.45925			 -0.44664
	4.50			  10.30964			  -0.34005			 -0.49827
	4.75			  10.13396			  -0.32361			 -0.13090
	5.00			  10.12121			  -0.28210			 -0.26901
	5.25			  10.23787			  -0.38670			 -0.22936
	5.50			  10.09995			  -0.23709			 -0.36528
	5.75			  10.09157			  -0.12673			 -0.57082
	6.00			  10.39117			  -0.05193			 -0.19185
	6.25			  10.24262			  -0.10043			 -0.20793
	6.50			  10.41305			  -0.18428			 -0.12764
	6.75			  10.35953			  0.02802			 0.01825
	7.00			  10.13184			  0.02514			 -0.04973
	7.25			  9.94778			  0.12707			 -0.20923
	7.50			  9.80948			  -0.10495			 -0.27707
	7.75			  10.12746			  -0.14441			 -0.06786
	8.00			  10.46719			  0.02144			 0.09304
	8.25			  10.40955			  0.07097			 0.04677
	8.50			  10.30564			  -0.11173			 -0.08235
	8.75			  10.10495			  -0.24141			 0.11657
	9.00			  10.26700			  -0.44897			 0.28297
	9.25			  10.22474			  -0.60516			 0.17766
	9.50			  10.31977			  -0.63188			 0.09831
	9.75			  10.34353			  -0.41177			 0.03759
	10.00			  10.38679			  -0.73401			 0.25151
	10.25			  10.10470			  -0.70319			 0.12114
	10.50			  10.16922			  -0.79402			 0.09966
	10.75			  10.50671			  -0.57269			 0.22169
	11.00			  10.31790			  -0.63167			 0.13125
	11.25			  10.51346			  -0.68716			 0.00348
	11.50			  10.46994			  -0.59591			 -0.04228
	11.75			  10.55847			  -0.37869			 0.12538
	12.00			  10.57023			  -0.17955			 0.07846
	12.25			  10.60011			  0.02165			 -0.15383
	12.50			  10.73991			  0.28922			 -0.10704
	12.75			  10.55860			  0.34758			 -0.08589
	13.00			  10.32040			  0.31224			 0.43329
	13.25			  10.49845			  0.11269			 0.35668
	13.50			  10.25275			  -0.17112			 0.33748
	13.75			  10.27463			  -0.27799			 0.05586
	14.00			  10.37041			  -0.63393			 0.02338
	14.25			  10.41568			  -0.76649			 0.12258
	14.50			  10.28376			  -0.69127			 0.00837
	14.75			  10.21961			  -0.73525			 0.20170
	15.00			  9.99042			  -0.90315			 0.15445
	15.25			  10.07807			  -0.78293			 -0.00877
	15.50			  9.94278			  -0.92534			 -0.14777
	15.75			  9.85250			  -0.91363			 -0.23178
	16.00			  9.88901			  -0.56467			 -0.18486
	16.25			  10.19010			  -0.28169			 -0.00821
	16.50			  10.10720			  -0.31416			 0.04192
	16.75			  10.02080			  -0.48062			 -0.05038
	17.00			  9.81648			  -0.29546			 -0.01697
	17.25			  9.65693			  -0.48000			 -0.02774
	17.50			  9.74009			  -0.55255			 -0.03482
	17.75			  9.46537			  -0.57577			 -0.00132
	18.00			  9.56628			  -0.53426			 0.30971
	18.25			  9.36096			  -0.64400			 0.34373
	18.50			  9.26193			  -0.38670			 -0.06893
	18.75			  9.35846			  -0.61996			 -0.08952
	19.00			  9.29294			  -0.41650			 0.00153
	19.25			  9.41686			  -0.59139			 -0.13822
	19.50			  9.43424			  -0.62242			 -0.14013
	19.75			  9.35234			  -0.32895			 -0.06008
	20.00			  9.32270			  -0.27819			 -0.10047
	20.25			  9.45124			  -0.47322			 -0.09763
	20.50			  9.61004			  -0.66106			 -0.38905
	20.75			  9.65906			  -0.92308			 -0.15839
	21.00			  9.68944			  -0.59714			 -0.32386
	21.25			  9.99667			  -0.32854			 -0.10690
	21.50			  10.12371			  -0.38321			 -0.18808
	21.75			  10.08057			  -0.28004			 -0.29422
	22.00			  10.22374			  -0.27984			 -0.05313
	22.25			  10.06069			  -0.43068			 -0.06744
	22.50			  9.78022			  -0.29731			 -0.29292
	22.75			  9.93552			  -0.12714			 -0.26622
	23.00			  9.97979			  -0.00774			 -0.05118
	23.25			  9.99117			  0.12646			 -0.02429
	23.50			  9.99454			  0.23373			 -0.34846
	23.75			  9.84387			  -0.09714			 -0.24133
	24.00			  9.93227			  0.02535			 0.00837
	24.25			  9.92527			  -0.08399			 -0.20299
	24.50			  10.02918			  -0.14646			 -0.16543
	24.75			  10.10120			  -0.19496			 -0.03585
	25.00			  9.89351			  -0.25600			 -0.01073
	25.25			  9.72283			  -0.19599			 0.04509
	25.50			  9.72396			  -0.30121			 0.02133
	25.75			  9.98329			  0.16550			 -0.11697
	26.00			  9.81061			  0.27997			 -0.16412
	26.25			  9.70995			  0.24113			 -0.11492
	26.50			  9.66956			  0.42671			 -0.34450
	26.75			  9.60067			  0.36916			 -0.41262
	27.00			  9.48413			  0.35334			 -0.40316
	27.25			  9.44161			  0.25264			 -0.33029
	27.50			  9.53502			  0.26168			 -0.21678
	27.75			  9.58866			  -0.00055			 -0.02527
	28.00			  9.49025			  -0.06364			 -0.18337
	28.25			  9.46600			  -0.27470			 -0.25927
	28.50			  9.54490			  -0.39780			 -0.14395
	28.75			  9.65881			  -0.45349			 -0.24194
	29.00			  9.78673			  -0.13495			 -0.17149
	29.25			  9.78347			  0.01425			 -0.28798
	29.50			  9.99304			  -0.26155			 0.02510
	29.75			  9.93040			  -0.29525			 0.09607
	30.00			  9.74021			  -0.38465			 0.04123
	30.25			  9.92627			  -0.53056			 0.10651
	30.50			  9.78823			  -0.25641			 -0.03226
	30.75			  9.74309			  -0.45329			 -0.05309
	31.00			  9.54465			  -0.58029			 -0.00150
	31.25			  9.35896			  -0.32505			 -0.01297
	31.50			  9.44574			  -0.35773			 -0.01455
	31.75			  9.56665			  -0.33101			 0.06280
	32.00			  9.59616			  -0.32238			 -0.07373
	32.25			  9.72583			  -0.14502			 -0.19190
	32.50			  9.73871			  -0.29792			 -0.06716
	32.75			  10.12258			  -0.33471			 -0.08016
	33.00			  9.95978			  -0.29381			 -0.15839
	33.25			  9.90401			  -0.55111			 -0.17284
	33.50			  9.80823			  -0.54577			 -0.05327
	33.75			  9.68382			  -0.44630			 -0.00122
	34.00			  9.63930			  -0.34437			 -0.01148
	34.25			  9.48213			  -0.40664			 -0.08272
	34.50			  9.66181			  -0.50528			 -0.13444
	34.75			  9.67706			  -0.11440			 -0.04530
	35.00			  9.47513			  -0.12386			 -0.05425
	35.25			  9.39998			  -0.09981			 0.25212
	35.50			  9.33996			  0.07652			 0.03554
	35.75			  9.30282			  -0.03261			 -0.19483
	36.00			  9.48363			  -0.12879			 -0.11068
	36.25			  9.63068			  0.00048			 -0.04670
	36.50			  9.57228			  0.08453			 -0.07107
	36.75			  9.62455			  -0.28765			 -0.06096
	37.00			  9.90801			  -0.21407			 -0.00682
	37.25			  9.87788			  -0.43253			 -0.01600
	37.50			  9.90176			  -0.19702			 0.00837
	37.75			  10.10558			  -0.26278			 -0.11548
	38.00			  10.29689			  -0.54433			 -0.24581
	38.25			  10.15959			  -0.21777			 -0.38914
	38.50			  10.10270			  -0.53179			 -0.19479
	38.75			  10.30989			  -0.24757			 -0.25960
	39.00			  10.48270			  -0.16331			 -0.22647
	39.25			  10.57023			  0.05391			 -0.27158
	39.50			  10.33228			  0.01795			 -0.13971
	39.75			  10.31852			  -0.31498			 -0.11888
	40.00			  10.42255			  -0.23339			 -0.29385
	40.25			  10.59148			  -0.16187			 -0.22260
	40.50			  10.39867			  -0.03877			 -0.09754
	40.75			  10.19373			  -0.23565			 -0.01777
	41.00			  10.17510			  -0.56385			 0.15786
	41.25			  10.23962			  -0.59180			 0.49698
	41.50			  10.00655			  -0.58358			 0.09756
	41.75			  9.71758			  -0.51802			 0.09956
	42.00			  9.86663			  -0.32176			 0.18362
	42.25			  10.07919			  -0.25990			 0.02478
	42.50			  10.16197			  -0.45082			 0.15888
	42.75			  10.32815			  -0.60352			 0.14938
	43.00			  10.30864			  -0.67216			 0.30156
	43.25			  10.58273			  -0.74799			 -0.10700
	43.50			  10.44419			  -0.68613			 -0.25173
	43.75			  10.12658			  -0.44651			 -0.08426
	44.00			  9.96066			  -0.11933			 -0.19148
	44.25			  9.87263			  -0.26607			 -0.23593
	44.50			  9.85587			  -0.08275			 -0.33485
	44.75			  9.74109			  -0.17277			 -0.20527
	45.00			  9.66894			  -0.38239			 -0.12512
	45.25			  9.72533			  -0.45062			 -0.28099
	45.50			  9.88176			  -0.60557			 -0.26170
	45.75			  9.79673			  -0.70648			 -0.36584
	46.00			  10.09232			  -0.57474			 -0.69164
	46.25			  10.17698			  -0.49172			 -0.71736
	46.50			  9.86187			  -0.49028			 -0.41477
	46.75			  9.69432			  -0.48966			 -0.27269
	47.00			  9.92940			  -0.41630			 -0.00565
	47.25			  9.92189			  -0.33060			 0.02804
	47.50			  9.74571			  -0.37643			 -0.06203
	47.75			  9.86988			  -0.28929			 -0.09078
	48.00			  9.92502			  -0.20873			 -0.14362
	48.25			  9.93315			  -0.50919			 -0.29017
	48.50			  9.67306			  -0.53714			 -0.11100
	48.75			  9.53452			  -0.37581			 -0.19082
	49.00			  9.50676			  -0.29381			 -0.35293
	49.25			  9.70520			  -0.37972			 -0.10947
	49.50			  9.81123			  -0.62407			 -0.19660
	49.75			  9.92114			  -0.71572			 -0.09805
	50.00			  9.73208			  -0.67236			 -0.02331
	50.25			  9.77160			  -0.76032			 -0.12606
	50.50			  9.65518			  -0.80183			 -0.23556
	50.75			  9.58041			  -0.67462			 -0.03608
	51.00			  9.35521			  -0.76751			 0.04971
	51.25			  9.35896			  -0.87499			 -0.00956
	51.50			  9.62767			  -0.63763			 -0.21375
	51.75			  9.57978			  -0.36019			 -0.55176
	52.00			  9.34083			  -0.36759			 -0.35279
	52.25			  9.37959			  -0.30635			 0.00199
	52.50			  9.41911			  -0.29217			 -0.10271
	52.75			  9.63430			  -0.12139			 -0.21678
	53.00			  9.66731			  -0.22291			 -0.15728
	53.25			  9.31757			  -0.46973			 -0.28649
	53.50			  9.26981			  -0.26340			 -0.36808
	53.75			  9.37034			  0.04733			 -0.36859
	54.00			  9.60217			  0.10179			 -0.29865
	54.25			  9.58241			  0.21030			 -0.14078
	54.50			  9.54977			  0.11885			 -0.13948
	54.75			  9.44011			  0.14310			 -0.17740
	55.00			  9.45862			  0.20599			 -0.13589
	55.25			  9.61079			  0.19777			 -0.18449
	55.50			  9.38447			  -0.02973			 -0.28248
	55.75			  9.05211			  -0.13269			 -0.08682
	56.00			  9.21029			  -0.09817			 -0.25927
	56.25			  9.02811			  0.28881			 -0.46546
	56.50			  9.02661			  0.32560			 -0.53713
	56.75			  8.99109			  -0.02521			 -0.61289
	57.00			  8.87506			  -0.06200			 -0.31556
	57.25			  8.97571			  -0.28107			 -0.28747
	57.50			  8.77940			  -0.27943			 -0.28141
	57.75			  8.96821			  -0.33204			 -0.17475
	58.00			  8.97071			  -0.62098			 0.12170
	58.25			  9.20929			  -0.37972			 0.21578
	58.50			  9.43424			  -0.33656			 0.05576
	58.75			  9.56003			  -0.35752			 -0.01665
	59.00			  9.62667			  -0.40725			 0.25268
	59.25			  9.42373			  -0.25518			 -0.06185
	59.50			  9.41923			  -0.33183			 -0.31719
	59.75			  9.37709			  -0.34313			 0.00632
	60.00			  9.34083			  -0.34848			 0.00777
	60.25			  9.16990			  -0.39492			 -0.17032
	60.50			  9.03186			  -0.47692			 0.02748
	60.75			  8.95008			  -0.14667			 0.14369
	61.00			  9.08663			  -0.18222			 0.23241
	61.25			  9.17828			  -0.16886			 0.24993
	61.50			  9.06899			  0.05802			 0.02590
	61.75			  9.04574			  -0.00671			 -0.19441
	62.00			  9.06037			  0.00356			 -0.14893
	62.25			  8.87231			  0.05617			 -0.30065
	62.50			  8.69975			  -0.27573			 -0.40363
	62.75			  8.82429			  -0.47651			 -0.18845
	63.00			  8.74839			  -0.13516			 0.04658
	63.25			  8.59909			  -0.10392			 -0.18719
	63.50			  8.94533			  0.26867			 -0.40829
	63.75			  8.87581			  0.26846			 -0.16888
	64.00			  8.94783			  0.31347			 -0.03049
	64.25			  9.24730			  0.13612			 -0.05714
	64.50			  9.24755			  -0.02953			 -0.04978
	64.75			  9.28619			  -0.03918			 -0.21091
	65.00			  9.26293			  0.07158			 -0.08174
	65.25			  9.36046			  0.03542			 0.08116
	65.50			  9.31908			  -0.13105			 -0.08295
	65.75			  9.23567			  -0.26895			 -0.15509
	66.00			  9.13214			  -0.48042			 0.02403
	66.25			  9.14589			  -0.25065			 -0.11240
	66.50			  9.28431			  -0.10803			 -0.11716
	66.75			  9.08412			  -0.21798			 0.00404
	67.00			  8.89431			  -0.12180			 -0.00444
	67.25			  9.03761			  -0.30512			 -0.03235
	67.50			  8.93633			  -0.53035			 -0.15164
	67.75			  8.94821			  -0.45822			 -0.19120
	68.00			  8.80866			  -0.38732			 -0.22037
	68.25			  9.04436			  -0.43931			 -0.16357
	68.50			  8.77928			  -0.55481			 -0.51313
	68.75			  8.91269			  -0.40232			 -0.36523
	69.00			  9.06324			  0.11166			 -0.18267
	69.25			  8.97271			  -0.24798			 -0.25149
	69.50			  8.79078			  -0.55111			 -0.24054
	69.75			  8.82354			  -0.59098			 -0.35121
	70.00			  8.86743			  -0.32526			 -0.18700
	70.25			  8.88606			  -0.11152			 -0.59081
	70.50			  8.95771			  -0.51679			 -0.19781
	70.75			  9.27869			  -0.28456			 0.12142
	71.00			  9.42298			  -0.32690			 0.24527
	71.25			  9.41948			  -0.49665			 0.26424
	71.50			  9.31082			  -0.43459			 0.29685
	71.75			  9.29344			  -0.53899			 0.47597
	72.00			  9.23367			  -0.78108			 0.37332
	72.25			  9.30995			  -1.01762			 0.00730
	72.50			  9.62267			  -1.04536			 0.02739
	72.75			  9.61830			  -0.98782			 0.13274
	73.00			  9.41911			  -1.12181			 -0.15625
	73.25			  9.29007			  -1.34109			 -0.19460
	73.50			  9.18653			  -1.21861			 -0.24078
	73.75			  9.10951			  -1.16024			 -0.33248
	74.00			  9.23630			  -0.97775			 -0.18975
	74.25			  9.14689			  -0.92637			 -0.17969
	74.50			  9.18316			  -0.70627			 -0.25205
	74.75			  9.27168			  -0.65613			 -0.29553
	75.00			  9.08412			  -0.46541			 -0.04656
	75.25			  9.16353			  -0.45226			 -0.10649
	75.50			  9.36434			  -0.68819			 -0.20038
	75.75			  9.57053			  -0.55234			 -0.10770
	76.00			  9.44824			  -0.44240			 -0.21226
	76.25			  9.32220			  -0.39020			 -0.15541
	76.50			  9.21779			  -0.23319			 -0.47921
	76.75			  9.51039			  -0.15119			 -0.74057
	77.00			  9.40310			  -0.28888			 -0.78395
	77.25			  9.29694			  -0.18366			 -0.71541
	77.50			  9.03011			  -0.19208			 -0.53615
	77.75			  8.80691			  -0.16496			 -0.60935
	78.00			  8.66987			  -0.19763			 -0.50950
	78.25			  8.94058			  -0.05665			 -0.48946
	78.50			  8.97346			  -0.40890			 -0.39897
	78.75			  8.85305			  -0.46685			 -0.50134
	79.00			  8.85793			  -0.52357			 -0.30307
	79.25			  8.89381			  -0.44589			 -0.35727
	79.50			  8.83980			  -0.45021			 -0.49118
	79.75			  8.89644			  -0.54721			 -0.43671
	80.00			  8.91107			  -0.48925			 -0.05159
	80.25			  9.01085			  -0.58317			 0.01168
	80.50			  8.99822			  -0.47774			 -0.06418
	80.75			  9.18016			  -0.64811			 -0.33947
	81.00			  9.15602			  -0.95823			 -0.21566
	81.25			  9.15577			  -0.78087			 -0.05374
	81.50			  8.87343			  -0.57146			 -0.16892
	81.75			  8.93695			  -0.89452			 -0.18262
	82.00			  9.20116			  -0.79731			 -0.15094
	82.25			  9.51264			  -0.43212			 -0.23160
	82.50			  9.48500			  -0.23935			 -0.17242
	82.75			  9.74484			  -0.23010			 -0.23202
	83.00			  9.83949			  -0.27717			 -0.20154
	83.25			  9.68932			  -0.34231			 -0.05416
	83.50			  9.63230			  -0.03425			 0.11676
	83.75			  9.39835			  -0.18201			 0.14705
	84.00			  9.15277			  -0.19537			 -0.15863
	84.25			  8.91545			  0.01158			 -0.51113
	84.50			  8.74452			  -0.27470			 -0.61303
	84.75			  8.66449			  -0.47322			 -0.33509
	85.00			  8.74539			  -0.30861			 -0.39920
	85.25			  8.88731			  -0.22476			 -0.18332
	85.50			  9.04336			  -0.25292			 -0.39380
	85.75			  8.90132			  -0.51515			 -0.53461
	86.00			  8.97346			  -0.49624			 -0.50600
	86.25			  8.85930			  -0.53775			 -0.36696
	86.50			  9.13789			  -0.76792			 -0.27186
	86.75			  9.18166			  -0.65983			 0.03568
	87.00			  9.20366			  -0.75354			 0.13954
	87.25			  9.14627			  -0.77265			 0.13507
	87.50			  9.21454			  -1.00179			 0.27710
	87.75			  9.13414			  -0.81231			 0.19802
	88.00			  9.12801			  -0.62345			 0.20757
	88.25			  8.99835			  -0.60886			 -0.05574
	88.50			  8.78665			  -0.49891			 0.02450
	88.75			  8.70213			  -0.68839			 -0.13360
	89.00			  8.94258			  -0.73854			 -0.13370
	89.25			  8.71626			  -0.95453			 0.08190
	89.50			  8.79853			  -0.87952			 0.26246
	89.75			  8.84430			  -1.08194			 -0.22591
	90.00			  8.95021			  -1.05646			 -0.00495
	90.25			  9.08813			  -1.16723			 0.24727
	90.50			  8.96809			  -1.18264			 0.18656
	90.75			  8.98597			  -1.29259			 0.15846
	91.00			  8.93208			  -1.05132			 0.41320
	91.25			  8.82629			  -1.06160			 0.42951
	91.50			  9.13464			  -0.97734			 0.63477
	91.75			  8.92207			  -0.60865			 0.66012
	92.00			  8.83179			  -0.59920			 0.52839
	92.25			  8.74614			  -0.33306			 0.42103
	92.50			  8.79253			  -0.34355			 0.29629
	92.75			  8.94170			  -0.32361			 0.30790
	93.00			  8.84542			  -0.25949			 0.30221
	93.25			  9.19704			  -0.15201			 0.61711
	93.50			  9.42986			  -0.14954			 0.45519
	93.75			  9.33708			  -0.15448			 0.44056
	94.00			  9.02598			  -0.12673			 0.55080
	94.25			  8.59484			  0.04343			 0.06378
	94.50			  8.42441			  0.12810			 0.16214
	94.75			  8.30225			  0.10406			 0.27863
	95.00			  8.39065			  0.15646			 0.05916
	95.25			  8.44492			  0.04261			 -0.19586
	95.50			  8.58096			  0.36731			 0.03083
	95.75			  8.57684			  0.04137			 0.31507
	96.00			  8.62248			  -0.11831			 0.51977
	96.25			  8.74952			  -0.21510			 0.56692
	96.50			  8.83267			  -0.19804			 0.24835
	96.75			  8.54895			  -0.29217			 0.34336
	97.00			  8.51444			  -0.33163			 0.11354
	97.25			  8.46355			  -0.19311			 0.06438
	97.50			  8.35251			  -0.42863			 0.31572
	97.75			  8.34876			  -0.38979			 0.39247
	98.00			  8.41754			  -0.21531			 0.50532
	98.25			  8.53207			  0.10693			 0.31540
	98.50			  8.61060			  -0.10413			 0.57662
	98.75			  8.44117			  -0.01226			 0.40496
	99.00			  8.35677			  -0.29361			 0.23535
	99.25			  8.46580			  0.00438			 0.03517
	99.50			  8.28087			  -0.26401			 0.10264
	99.75			  8.33676			  -0.32731			 0.11000
	100.00			  8.60610			  -0.27491			 0.24816
	100.25			  8.61635			  -0.47589			 0.13903
	100.50			  8.61010			  -0.58050			 -0.20149
	100.75			  8.76402			  -0.20133			 0.02603
	101.00			  8.93258			  0.00623			 -0.02900
	101.25			  8.84830			  -0.08830			 -0.02038
	101.50			  8.84080			  -0.48206			 0.09206
	101.75			  8.71000			  -0.54864			 0.09980
	102.00			  8.94245			  -0.65818			 -0.05476
	102.25			  9.10075			  -0.83615			 0.19877
	102.50			  8.98509			  -0.92473			 0.22081
	102.75			  9.18203			  -0.71778			 0.01718
	103.00			  9.35396			  -0.77409			 0.34312
	103.25			  9.41498			  -0.53138			 0.38068
	103.50			  9.44499			  -0.22312			 0.17221
	103.75			  9.28281			  0.08186			 0.08894
	104.00			  9.15540			  -0.17914			 0.04826
	104.25			  9.16040			  0.01918			 0.13148
	104.50			  9.21329			  -0.10556			 0.31624
	104.75			  9.08550			  -0.05213			 -0.12564
	105.00			  9.11851			  0.01959			 0.06448
	105.25			  9.27706			  0.08309			 -0.02429
	105.50			  9.46312			  0.04857			 -0.22330
	105.75			  9.58629			  -0.12057			 -0.16892
	106.00			  9.47900			  -0.25045			 -0.27423
	106.25			  9.53502			  -0.04535			 -0.19013
	106.50			  9.49000			  0.05412			 -0.01525
	106.75			  9.14352			  0.05247			 -0.00355
	107.00			  9.31320			  0.18235			 0.03633
	107.25			  9.37334			  0.07364			 0.08395
	107.50			  9.35809			  -0.03898			 -0.11869
	107.75			  9.63468			  0.10262			 -0.14446
	108.00			  9.56816			  -0.16064			 -0.07536
	108.25			  9.55190			  -0.00815			 -0.10984
	108.50			  9.35496			  0.23086			 -0.21361
	108.75			  9.35021			  0.15461			 -0.42576
	109.00			  9.45699			  0.14228			 -0.62906
	109.25			  9.56228			  0.07179			 -0.56928
	109.50			  9.56640			  0.03028			 -0.22358
	109.75			  9.72058			  0.38828			 -0.28518
	110.00			  9.81461			  0.19838			 -0.61024
	110.25			  9.75647			  0.16612			 -0.64090
	110.50			  9.83174			  0.31861			 -0.56765
	110.75			  9.79785			  0.43082			 -0.40591
	111.00			  9.67857			  0.49535			 -0.35228
	111.25			  9.61229			  0.40225			 -0.31924
	111.50			  9.48125			  0.46205			 -0.51756
	111.75			  9.26831			  0.22654			 -0.48890
	112.00			  9.39285			  0.37225			 -0.29520
	112.25			  9.22504			  0.13016			 -0.41561
	112.50			  9.28081			  0.14002			 -0.36132
	112.75			  9.18603			  0.20476			 -0.38886
	113.00			  9.34196			  0.10138			 -0.41849
	113.25			  9.61054			  0.13879			 -0.32414
	113.50			  9.12739			  0.42671			 -0.47064
	113.75			  8.95333			  0.30176			 -0.19087
	114.00			  9.03336			  -0.01411			 -0.29329
	114.25			  9.02861			  0.06932			 -0.53690
	114.50			  9.20366			  0.28408			 -0.28187
	114.75			  9.32520			  0.47932			 -0.12065
	115.00			  9.36271			  0.60694			 0.06960
	115.25			  9.41748			  0.73723			 0.01760
	115.50			  9.59654			  0.65955			 0.08824
	115.75			  9.45412			  0.67250			 -0.01907
	116.00			  9.39960			  0.86013			 0.26186
	116.25			  9.44061			  0.93288			 0.63850
	116.50			  9.32558			  1.00398			 0.33413
	116.75			  9.34633			  0.72017			 0.24681
	117.00			  9.58429			  0.72511			 0.29462
	117.25			  9.36046			  0.71442			 0.21713
	117.50			  9.53027			  0.50316			 0.03214
	117.75			  9.31420			  0.53686			 -0.03445
	118.00			  9.00760			  0.65174			 -0.27614
	118.25			  9.15490			  0.57406			 -0.12568
	118.50			  9.16565			  0.54796			 -0.06073
	118.75			  9.08600			  0.69921			 -0.33546
	119.00			  9.15915			  0.47130			 -0.46551
	119.25			  9.25956			  0.22675			 -0.26752
	119.50			  9.24843			  0.42547			 -0.11170
	119.75			  9.20666			  0.48076			 -0.11091
	120.00			  9.10326			  0.28038			 -0.33388
	120.25			  9.04986			  0.03172			 -0.35531
	120.50			  8.89994			  0.23784			 -0.17694
	120.75			  8.98722			  -0.01946			 -0.34520
	121.00			  9.06037			  -0.19784			 -0.46476
	121.25			  9.14840			  -0.41342			 -0.59151
	121.50			  9.03373			  -0.32156			 -0.41570
	121.75			  8.95121			  0.14557			 -0.63941
	122.00			  9.19228			  -0.02336			 -0.50172
	122.25			  9.16765			  -0.29546			 -0.40167
	122.50			  9.13614			  -0.49418			 -0.19376
	122.75			  8.90082			  -0.48761			 -0.08729
	123.00			  8.84617			  -0.13372			 0.06718
	123.25			  8.83830			  -0.26072			 0.01863
	123.50			  9.05599			  -0.23668			 0.14043
	123.75			  9.31782			  -0.17914			 0.07333
	124.00			  9.36546			  -0.09714			 0.04164
	124.25			  9.39472			  -0.02151			 0.07035
	124.50			  9.34096			  0.25798			 0.19369
	124.75			  9.00347			  0.31326			 0.15473
	125.00			  8.84055			  0.42013			 0.20003
	125.25			  8.94108			  0.31306			 0.07617
	125.50			  8.87443			  0.33916			 0.31130
	125.75			  8.64911			  0.11125			 0.04509
	126.00			  8.73626			  0.15112			 0.03671
	126.25			  8.78303			  0.27627			 0.09281
	126.50			  8.57359			  0.29950			 -0.16906
	126.75			  8.67787			  0.35745			 -0.15974
	127.00			  8.60735			  0.16365			 -0.10336
	127.25			  8.24110			  0.27483			 -0.19651
	127.50			  8.34201			  0.53563			 -0.10858
	127.75			  8.59922			  0.38396			 -0.18654
	128.00			  8.58897			  0.46740			 -0.34231
	128.25			  8.40353			  0.39567			 -0.19944
	128.50			  8.61260			  0.83156			 -0.14092
	128.75			  8.73039			  1.04468			 -0.11231
	129.00			  8.78490			  0.99905			 -0.06217
	129.25			  8.93345			  0.92301			 -0.06063
	129.50			  9.02098			  0.80834			 0.51553
	129.75			  9.02461			  0.56090			 0.46041
	130.00			  8.96271			  0.55556			 0.43184
	130.25			  8.95683			  0.46452			 0.28655
	130.50			  9.00923			  0.38519			 0.36050
	130.75			  9.28569			  0.40780			 0.20469
	131.00			  9.05974			  0.64907			 0.37621
	131.25			  8.89506			  0.87102			 0.22067
	131.50			  8.70200			  0.38622			 0.15702
	131.75			  8.36189			  0.58721			 0.12184
	132.00			  8.58922			  0.90678			 -0.18071
	132.25			  8.56971			  0.97645			 -0.15578
	132.50			  8.54245			  1.26806			 -0.20215
	132.75			  8.62785			  1.21545			 0.10194
	133.00			  8.62123			  1.09009			 -0.14316
	133.25			  8.77565			  1.06214			 -0.00770
	133.50			  8.76377			  1.01220			 -0.06459
	133.75			  8.81304			  0.87801			 -0.10103
	134.00			  8.81591			  1.11475			 0.02315
	134.25			  8.77440			  1.25512			 -0.02354
	134.50			  8.58071			  1.12318			 0.03871
	134.75			  8.62373			  1.03132			 -0.34166
	135.00			  8.82779			  0.63571			 -0.31235
	135.25			  8.73401			  0.83279			 -0.00924
	135.50			  8.76265			  0.80238			 -0.09423
	135.75			  8.92432			  0.76395			 -0.01222
	136.00			  8.93483			  0.46041			 -0.09036
	136.25			  9.06799			  0.60468			 -0.11921
	136.50			  8.92482			  0.86424			 -0.10872
	136.75			  8.94983			  0.75819			 0.05861
	137.00			  9.01823			  0.52165			 0.50821
	137.25			  8.82842			  0.56255			 0.26983
	137.50			  8.90919			  0.63078			 0.43273
	137.75			  8.99322			  0.39280			 0.46940
	138.00			  9.12114			  0.47521			 0.27779
	138.25			  9.08337			  0.55494			 0.03959
	138.50			  9.12664			  0.50213			 -0.09185
	138.75			  9.01735			  0.29210			 -0.13151
	139.00			  9.01235			  0.27216			 -0.04866
	139.25			  9.07862			  0.21421			 -0.08794
	139.50			  8.76190			  0.31347			 -0.21776
	139.75			  8.84217			  0.35026			 -0.05947
	140.00			  8.69988			  0.43554			 0.08069
	140.25			  8.84092			  0.25387			 -0.02424
	140.50			  8.71976			  0.32087			 0.25794
	140.75			  8.91895			  -0.00877			 0.42290
	141.00			  8.86168			  -0.21777			 0.50006
	141.25			  9.05549			  0.09460			 0.31284
	141.50			  9.09413			  0.17722			 0.39680
	141.75			  9.00435			  0.03788			 0.40253
	142.00			  8.96971			  -0.09488			 0.29075
	142.25			  9.05224			  -0.15386			 0.08815
	142.50			  8.98934			  -0.04186			 0.20385
	142.75			  9.12339			  -0.04042			 0.11326
	143.00			  9.14952			  0.08248			 -0.05840
	143.25			  9.05411			  0.10919			 -0.02331
	143.50			  9.22580			  0.23250			 0.02925
	143.75			  9.18853			  0.25613			 0.23931
	144.00			  9.42561			  0.21030			 0.05432
	144.25			  8.98709			  -0.05480			 0.25655
	144.50			  9.01748			  -0.16763			 0.27971
	144.75			  9.19003			  -0.05275			 0.06345
	145.00			  9.18753			  -0.00959			 -0.11576
	145.25			  8.75164			  0.16633			 0.00749
	145.50			  8.77515			  -0.07330			 0.02231
	145.75			  8.79053			  0.10221			 0.01080
	146.00			  8.95796			  0.12522			 -0.28253
	146.25			  9.06324			  0.04507			 -0.19068
	146.50			  8.86593			  0.23702			 -0.18062
	146.75			  9.10301			  0.08618			 -0.05397
	147.00			  9.13964			  0.08268			 -0.16590
	147.25			  9.17953			  0.13427			 -0.04754
	147.50			  9.14039			  0.32950			 -0.25774
	147.75			  9.42423			  -0.10474			 -0.18835
	148.00			  9.60417			  0.05144			 -0.07168
	148.25			  9.45925			  0.19633			 0.24098
	148.50			  9.46875			  0.20188			 0.27090
	148.75			  9.37697			  -0.04145			 0.28241
	149.00			  9.59229			  0.13488			 0.19276
	149.25			  9.60004			  0.05144			 0.17207
	149.50			  9.67631			  -0.05542			 0.22915
	149.75			  9.63230			  -0.02336			 0.16867
	150.00			  9.66118			  -0.10330			 0.46763
	150.25			  9.52539			  -0.49603			 0.42117
	150.50			  9.51851			  -0.43911			 0.41614
	150.75			  9.49238			  -0.17009			 0.25683
	151.00			  9.67757			  -0.27079			 -0.02676
	151.25			  9.47412			  -0.14420			 0.04509
	151.50			  9.68957			  -0.08686			 0.32733
	151.75			  9.82749			  -0.33841			 0.19518
	152.00			  9.67294			  -0.47466			 0.20375
	152.25			  9.96053			  -0.12940			 0.16144
	152.50			  9.79985			  0.21072			 0.13260
	152.75			  9.72621			  0.34800			 0.22523
	153.00			  9.68707			  0.29950			 0.02538
	153.25			  9.60567			  0.22428			 -0.19786
	153.50			  9.48138			  0.29230			 -0.28476
	153.75			  9.41085			  0.37430			 -0.20587
	154.00			  9.52214			  0.30587			 -0.18267
	154.25			  9.64393			  0.24976			 -0.12820
	154.50			  9.49551			  0.13612			 -0.31291
	154.75			  9.61692			  -0.24737			 -0.39678
	155.00			  9.86000			  -0.05254			 -0.42711
	155.25			  9.99404			  0.00849			 -0.30457
	155.50			  10.25200			  -0.13516			 -0.26720
	155.75			  10.25513			  -0.15920			 -0.01101
	156.00			  10.11270			  -0.33060			 0.24052
	156.25			  10.10983			  -0.50035			 0.36432
	156.50			  10.11095			  -0.51104			 0.40151
	156.75			  10.09607			  -0.74778			 0.43594
	157.00			  10.29389			  -0.52378			 0.48589
	157.25			  10.16697			  -0.73956			 0.34056
	157.50			  10.04981			  -0.83513			 0.16419
	157.75			  9.92752			  -0.53899			 0.19276
	158.00			  10.00967			  -0.56467			 0.14267
	158.25			  9.89801			  -0.90562			 0.18828
	158.50			  9.92740			  -0.83903			 0.04500
	158.75			  9.78047			  -0.68757			 -0.01334
	159.00			  9.72583			  -0.81252			 0.11410
	159.25			  9.80573			  -0.62859			 0.27724
	159.50			  9.58091			  -0.76875			 0.24616
	159.75			  9.47663			  -0.84067			 0.23241
	160.00			  9.33245			  -0.72251			 -0.10388
	160.25			  9.42336			  -0.47158			 -0.19250
	160.50			  9.35321			  -0.34313			 -0.27400
	160.75			  9.32133			  -0.21407			 -0.20177
	161.00			  9.28194			  -0.16516			 0.00008
	161.25			  9.50138			  -0.31087			 -0.21417
	161.50			  9.50013			  -0.11810			 -0.18151
	161.75			  9.68882			  -0.07494			 0.05502
	162.00			  9.77072			  -0.09776			 0.03824
	162.25			  9.86575			  -0.36122			 -0.06185
	162.50			  9.95203			  -0.39081			 -0.21030
	162.75			  9.86800			  -0.46151			 -0.23593
	163.00			  9.78235			  -0.33615			 -0.15984
	163.25			  9.88913			  -0.21551			 -0.25215
	163.50			  10.06131			  -0.38115			 -0.27274
	163.75			  9.90814			  -0.60146			 -0.44128
	164.00			  10.11183			  -0.43849			 -0.51993
	164.25			  10.00179			  -0.46418			 -0.46518
	164.50			  10.14897			  -0.46171			 -0.55423
	164.75			  10.20949			  -0.58440			 -0.27619
	165.00			  10.19173			  -0.67544			 -0.13430
	165.25			  10.07932			  -0.61564			 0.05679
	165.50			  9.73896			  -0.79258			 -0.09870
	165.75			  9.69407			  -0.71285			 0.07631
	166.00			  9.40498			  -0.98371			 -0.04880
	166.25			  9.36972			  -1.02378			 0.12612
	166.50			  9.42023			  -0.86903			 0.24257