--------------TurbSim v2.00.* User Time Series Input File-----------------------
     Time series input from low-res turbsim run
--------------------------------------------------------------------------------
          3 nComp - Number of velocity components in the file
          1 nPoints - Number of time series points contained in this file (-)
          1 RefPtID - Index of the reference point (1-nPoints)
     Pointyi Pointzi ! nPoints listed in order of increasing height
       (m)     (m)
       -4.08301   94.00000
--------Time Series-------------------------------------------------------------
Elapsed Time         Point01u             Point01v           Point01w
         (s)            (m/s)                (m/s)              (m/s)
	0.00			  9.93887			  -0.02295			 -0.05653
	0.25			  10.06506			  0.11390			 -0.04427
	0.50			  9.88068			  -0.08639			 -0.03532
	0.75			  9.88578			  -0.04545			 0.13640
	1.00			  9.78053			  0.13382			 0.12915
	1.25			  9.86277			  0.17642			 0.33241
	1.50			  10.03167			  0.01855			 0.23385
	1.75			  10.07260			  0.09029			 0.04788
	2.00			  10.05648			  0.18970			 -0.00145
	2.25			  10.05478			  0.06115			 0.18896
	2.50			  10.06487			  -0.00985			 0.42469
	2.75			  10.14796			  0.09675			 0.38404
	3.00			  10.14739			  0.06964			 0.16206
	3.25			  10.16474			  -0.02184			 -0.01930
	3.50			  10.34733			  -0.01539			 0.02695
	3.75			  10.38043			  0.04953			 0.03134
	4.00			  10.46408			  0.16499			 -0.04431
	4.25			  10.28150			  -0.12291			 -0.18483
	4.50			  10.31573			  -0.11775			 -0.11783
	4.75			  10.42136			  -0.02295			 -0.18128
	5.00			  10.35072			  -0.02977			 -0.17176
	5.25			  10.42230			  -0.13398			 -0.06801
	5.50			  10.47332			  -0.29996			 -0.13121
	5.75			  10.43862			  -0.19926			 0.03090
	6.00			  10.29216			  0.00250			 -0.03955
	6.25			  10.34695			  0.02593			 -0.08620
	6.50			  10.29508			  -0.22748			 -0.00294
	6.75			  10.23548			  -0.01907			 0.00412
	7.00			  10.26518			  0.06318			 0.21089
	7.25			  10.24755			  0.02334			 0.11824
	7.50			  10.20916			  -0.06131			 -0.00235
	7.75			  10.26575			  0.02980			 -0.04984
	8.00			  10.31781			  0.04621			 0.01662
	8.25			  10.25387			  -0.00174			 0.09948
	8.50			  10.17465			  0.10744			 0.06219
	8.75			  10.20765			  0.08107			 -0.05886
	9.00			  10.26358			  0.23360			 -0.00832
	9.25			  10.17106			  0.30331			 0.00642
	9.50			  10.30989			  0.23728			 -0.05787
	9.75			  10.32215			  0.36141			 -0.12396
	10.00			  10.29829			  0.32452			 -0.13484
	10.25			  10.23387			  0.44071			 -0.23667
	10.50			  10.19775			  0.44514			 -0.14135
	10.75			  10.31224			  0.26495			 -0.10377
	11.00			  10.27848			  0.20021			 -0.15211
	11.25			  10.28489			  0.13308			 -0.12595
	11.50			  10.31498			  0.33577			 -0.08150
	11.75			  10.34506			  0.38723			 0.11351
	12.00			  10.27669			  0.36602			 0.06474
	12.25			  10.40023			  0.33061			 -0.10632
	12.50			  10.38580			  0.51006			 -0.14029
	12.75			  10.46946			  0.47539			 -0.14467
	13.00			  10.29414			  0.40530			 -0.07842
	13.25			  10.22237			  0.34794			 -0.09367
	13.50			  10.09571			  0.38815			 -0.00832
	13.75			  10.15163			  0.56170			 0.03628
	14.00			  10.37364			  0.57572			 -0.04667
	14.25			  10.26217			  0.52481			 -0.10639
	14.50			  10.06864			  0.52555			 0.12838
	14.75			  10.07091			  0.42762			 -0.04210
	15.00			  10.00678			  0.57276			 -0.04742
	15.25			  10.03978			  0.24983			 -0.11917
	15.50			  9.95208			  0.18380			 -0.14094
	15.75			  9.98075			  0.30036			 -0.13397
	16.00			  10.05619			  0.13511			 -0.15313
	16.25			  10.13664			  0.19745			 -0.06962
	16.50			  10.06855			  0.25499			 -0.24047
	16.75			  10.21162			  0.38575			 -0.11180
	17.00			  10.27546			  0.44422			 0.15363
	17.25			  10.37986			  0.28358			 0.24713
	17.50			  10.39326			  0.30036			 0.25123
	17.75			  10.34440			  0.30552			 0.00577
	18.00			  10.31432			  0.27436			 -0.05270
	18.25			  10.23416			  0.23415			 -0.07062
	18.50			  10.08260			  0.19708			 -0.05258
	18.75			  10.03139			  0.23175			 -0.06129
	19.00			  10.05384			  0.20335			 -0.04928
	19.25			  10.19332			  0.28985			 -0.05644
	19.50			  10.20756			  0.16462			 0.08203
	19.75			  9.99895			  0.22640			 0.15279
	20.00			  9.96707			  0.26329			 0.13062
	20.25			  10.00093			  0.12201			 0.11286
	20.50			  10.10297			  0.26089			 0.11544
	20.75			  10.03790			  0.15337			 0.04555
	21.00			  9.96585			  0.32821			 0.10517
	21.25			  10.00536			  0.35403			 -0.16520
	21.50			  10.07025			  0.23452			 -0.28725
	21.75			  10.18851			  0.17126			 -0.21988
	22.00			  10.21558			  0.05433			 -0.32205
	22.25			  10.05959			  0.00970			 -0.24846
	22.50			  10.02026			  -0.07035			 -0.03339
	22.75			  10.23312			  -0.17898			 -0.01050
	23.00			  10.18247			  -0.31453			 -0.03339
	23.25			  10.22538			  -0.30476			 -0.12890
	23.50			  10.32894			  -0.39421			 -0.10334
	23.75			  10.16936			  -0.17473			 -0.07230
	24.00			  10.19473			  -0.16514			 -0.06135
	24.25			  10.19728			  -0.20941			 -0.26380
	24.50			  10.31686			  -0.08787			 -0.35878
	24.75			  10.40429			  -0.05817			 -0.30622
	25.00			  10.59593			  -0.05541			 -0.11824
	25.25			  10.44173			  -0.07625			 -0.17842
	25.50			  10.38590			  0.00121			 0.00496
	25.75			  10.56075			  -0.07072			 -0.06549
	26.00			  10.51105			  -0.12752			 -0.21845
	26.25			  10.46069			  -0.03918			 -0.08129
	26.50			  10.47031			  -0.01889			 -0.10884
	26.75			  10.37666			  0.02168			 -0.17574
	27.00			  10.27782			  -0.00432			 -0.26510
	27.25			  10.33337			  0.00047			 -0.11027
	27.50			  10.30687			  -0.07514			 -0.10483
	27.75			  10.32384			  0.02334			 -0.17494
	28.00			  10.23746			  0.06705			 -0.04673
	28.25			  10.19445			  0.04087			 0.04524
	28.50			  10.19719			  0.06503			 -0.04975
	28.75			  10.28423			  0.12810			 0.03121
	29.00			  10.03092			  0.30774			 0.15858
	29.25			  10.02403			  0.33909			 0.12542
	29.50			  10.01790			  0.28026			 0.21820
	29.75			  9.97811			  0.36676			 0.15870
	30.00			  9.98876			  0.41637			 0.02085
	30.25			  9.93039			  0.25831			 -0.10088
	30.50			  9.88050			  0.10357			 -0.08424
	30.75			  9.99838			  0.02519			 -0.27562
	31.00			  9.92567			  0.04437			 -0.15805
	31.25			  9.92652			  0.07996			 -0.10707
	31.50			  9.83749			  0.06503			 -0.09712
	31.75			  9.78477			  0.18601			 -0.23232
	32.00			  9.75921			  0.39700			 -0.19067
	32.25			  9.75874			  0.33024			 -0.21229
	32.50			  9.82316			  0.34259			 -0.21926
	32.75			  9.92001			  0.29556			 -0.42273
	33.00			  10.15409			  0.12515			 -0.28719
	33.25			  10.17663			  0.20741			 -0.22143
	33.50			  10.16635			  0.27270			 -0.14875
	33.75			  10.05082			  0.12958			 -0.02589
	34.00			  9.95028			  0.16388			 0.07846
	34.25			  9.90879			  0.11685			 -0.20162
	34.50			  9.74950			  -0.06795			 -0.11556
	34.75			  9.68358			  -0.22527			 -0.08231
	35.00			  9.80033			  -0.26252			 -0.04608
	35.25			  9.63237			  -0.15721			 -0.07786
	35.50			  9.74120			  -0.09727			 0.07071
	35.75			  9.92897			  -0.18027			 0.12775
	36.00			  9.82815			  0.03054			 -0.11771
	36.25			  9.71291			  0.17347			 0.14601
	36.50			  9.69678			  -0.00321			 0.23817
	36.75			  9.70348			  0.02242			 0.03986
	37.00			  9.71121			  -0.04287			 0.06558
	37.25			  9.64887			  0.14562			 -0.03466
	37.50			  9.56805			  0.23323			 0.00981
	37.75			  9.64868			  -0.02129			 0.32930
	38.00			  9.59427			  -0.09893			 0.23584
	38.25			  9.67047			  0.03275			 0.11130
	38.50			  9.56994			  0.02353			 0.21624
	38.75			  9.44639			  0.18417			 0.20946
	39.00			  9.37773			  0.17052			 0.10085
	39.25			  9.30615			  0.12349			 0.10346
	39.50			  9.40914			  0.17458			 -0.01367
	39.75			  9.48402			  -0.14873			 0.10502
	40.00			  9.43630			  0.00822			 -0.05093
	40.25			  9.46865			  0.09951			 -0.20022
	40.50			  9.47072			  0.17550			 -0.11111
	40.75			  9.39433			  0.23360			 -0.26526
	41.00			  9.31398			  0.31475			 -0.02835
	41.25			  9.36519			  0.07978			 0.13388
	41.50			  9.49411			  0.04916			 0.06175
	41.75			  9.46459			  0.10874			 -0.05444
	42.00			  9.56994			  -0.01557			 0.16172
	42.25			  9.63020			  -0.17732			 0.00630
	42.50			  9.59776			  -0.17492			 0.04222
	42.75			  9.74082			  -0.31066			 0.00216
	43.00			  9.70027			  0.01689			 -0.13093
	43.25			  9.77308			  0.18343			 -0.01342
	43.50			  9.68886			  0.02279			 -0.18635
	43.75			  9.68650			  0.04824			 -0.16806
	44.00			  9.70593			  -0.09506			 -0.20128
	44.25			  9.58625			  -0.12162			 -0.03295
	44.50			  9.62096			  -0.02184			 0.04583
	44.75			  9.34623			  -0.15555			 0.16446
	45.00			  9.49534			  -0.27193			 0.08200
	45.25			  9.50411			  -0.23209			 0.15556
	45.50			  9.52552			  -0.31306			 0.28467
	45.75			  9.52552			  -0.36212			 0.22361
	46.00			  9.39848			  -0.57624			 -0.07419
	46.25			  9.48091			  -0.51704			 0.06048
	46.50			  9.50731			  -0.49454			 -0.00303
	46.75			  9.61181			  -0.45341			 0.09961
	47.00			  9.66745			  -0.48292			 0.03059
	47.25			  9.56880			  -0.42464			 -0.03625
	47.50			  9.70914			  -0.11074			 -0.03050
	47.75			  9.54391			  0.00029			 0.07224
	48.00			  9.64699			  0.22659			 0.08474
	48.25			  9.63180			  0.22069			 -0.01914
	48.50			  9.58691			  0.17421			 -0.18927
	48.75			  9.64736			  -0.01963			 -0.17270
	49.00			  9.80778			  -0.03438			 -0.22554
	49.25			  9.82542			  -0.09488			 -0.27546
	49.50			  9.66302			  -0.23615			 -0.15354
	49.75			  9.69584			  -0.29332			 -0.15120
	50.00			  9.56777			  -0.10262			 -0.18038
	50.25			  9.65472			  -0.10262			 -0.34314
	50.50			  9.82278			  -0.17898			 -0.18952
	50.75			  9.85635			  -0.03328			 -0.15376
	51.00			  9.82759			  0.02666			 0.04673
	51.25			  9.82400			  -0.04231			 -0.03815
	51.50			  10.02800			  0.00675			 -0.11528
	51.75			  10.06374			  0.16333			 -0.16486
	52.00			  10.01621			  0.15853			 -0.39150
	52.25			  10.01338			  0.08439			 -0.28439
	52.50			  10.03629			  0.10376			 -0.16309
	52.75			  9.96396			  -0.16182			 -0.23966
	53.00			  9.95896			  -0.04490			 -0.24504
	53.25			  10.01036			  0.04750			 -0.17895
	53.50			  9.88785			  -0.03125			 -0.22548
	53.75			  9.91945			  -0.02166			 -0.34227
	54.00			  9.89823			  0.03957			 -0.24983
	54.25			  9.82382			  0.20206			 -0.07578
	54.50			  9.77185			  0.35366			 -0.07401
	54.75			  9.77770			  0.46174			 0.07967
	55.00			  9.88380			  0.32212			 0.18231
	55.25			  9.83843			  0.25499			 0.11696
	55.50			  9.86748			  0.33411			 0.16539
	55.75			  9.89426			  0.23064			 0.12380
	56.00			  9.96641			  0.15982			 0.08931
	56.25			  9.91746			  -0.03899			 0.26370
	56.50			  9.88106			  -0.09801			 0.12803
	56.75			  9.96377			  0.07443			 0.23170
	57.00			  9.88182			  -0.03641			 0.12974
	57.25			  9.85249			  -0.01004			 -0.07000
	57.50			  9.76478			  0.01375			 0.11227
	57.75			  9.72555			  0.06410			 0.19472
	58.00			  9.59446			  0.18823			 0.25328
	58.25			  9.68763			  0.13179			 0.33291
	58.50			  9.71159			  0.16148			 0.46873
	58.75			  9.61520			  -0.11959			 0.30519
	59.00			  9.67575			  -0.04840			 0.31353
	59.25			  9.67066			  -0.06076			 0.06686
	59.50			  9.82995			  -0.19871			 0.11202
	59.75			  9.84013			  -0.13859			 0.26535
	60.00			  9.86173			  0.02316			 0.06745
	60.25			  9.98433			  0.08992			 -0.16203
	60.50			  10.05318			  0.02666			 -0.21767
	60.75			  9.86475			  -0.01004			 -0.28675
	61.00			  9.80929			  -0.00856			 -0.15646
	61.25			  9.70565			  0.23765			 -0.19963
	61.50			  9.69103			  0.11980			 -0.09734
	61.75			  9.72630			  0.21386			 -0.11870
	62.00			  9.84645			  0.12331			 -0.15724
	62.25			  9.86022			  0.19634			 0.01585
	62.50			  9.86390			  0.11962			 0.01246
	62.75			  9.94915			  0.14820			 -0.07196
	63.00			  9.87333			  0.08992			 -0.07385
	63.25			  9.92576			  -0.07367			 0.03230
	63.50			  9.90219			  -0.04121			 -0.02235
	63.75			  9.67556			  -0.07736			 0.04166
	64.00			  9.68726			  0.13972			 0.04384
	64.25			  9.72451			  0.28395			 0.11538
	64.50			  9.73894			  0.28671			 0.16595
	64.75			  9.71206			  0.30257			 0.13453
	65.00			  9.74743			  0.41876			 0.19913
	65.25			  9.55654			  0.24798			 0.02045
	65.50			  9.54928			  0.14931			 -0.02841
	65.75			  9.62624			  0.20759			 -0.08639
	66.00			  9.68810			  0.05544			 -0.10169
	66.25			  9.79930			  -0.10668			 -0.14651
	66.50			  9.62595			  -0.30900			 -0.25767
	66.75			  9.58531			  -0.17031			 -0.23699
	67.00			  9.72639			  -0.03199			 -0.29313
	67.25			  9.73620			  -0.21383			 -0.29328
	67.50			  9.68575			  -0.09727			 -0.13453
	67.75			  9.83664			  0.05728			 -0.24109
	68.00			  9.53051			  0.11777			 -0.28432
	68.25			  9.38537			  0.15245			 -0.28619
	68.50			  9.46261			  0.31991			 -0.33204
	68.75			  9.55862			  0.24964			 -0.19876
	69.00			  9.59078			  0.18915			 -0.26660
	69.25			  9.50401			  0.13972			 -0.16498
	69.50			  9.44733			  0.19874			 -0.08110
	69.75			  9.59134			  0.14802			 -0.11453
	70.00			  9.60398			  0.13843			 0.13774
	70.25			  9.84937			  0.12091			 0.11199
	70.50			  9.90775			  0.05009			 0.13646
	70.75			  9.68716			  0.09767			 0.06922
	71.00			  9.82985			  0.09214			 -0.02356
	71.25			  9.85003			  0.13050			 0.01762
	71.50			  9.83428			  0.10874			 -0.12897
	71.75			  9.75714			  0.20261			 -0.08353
	72.00			  9.78477			  0.25093			 0.08309
	72.25			  9.75969			  0.36528			 0.11665
	72.50			  9.66387			  0.25407			 0.06539
	72.75			  9.61219			  0.13419			 -0.19702
	73.00			  9.53174			  0.12792			 0.00537
	73.25			  9.52316			  -0.05024			 -0.01134
	73.50			  9.64038			  -0.00137			 -0.23898
	73.75			  9.47525			  0.17458			 -0.22243
	74.00			  9.37123			  0.32378			 -0.14013
	74.25			  9.31209			  0.50803			 -0.22993
	74.50			  9.37981			  0.47465			 -0.22719
	74.75			  9.47317			  0.57092			 -0.15690
	75.00			  9.58257			  0.45049			 -0.11488
	75.25			  9.52608			  0.51541			 0.04403
	75.50			  9.61219			  0.46248			 0.07071
	75.75			  9.78138			  0.36971			 0.00932
	76.00			  9.91237			  0.41674			 0.02185
	76.25			  9.85154			  0.37026			 0.21167
	76.50			  9.93416			  0.36731			 0.28675
	76.75			  9.91530			  0.34831			 0.21251
	77.00			  9.94868			  0.44366			 0.24576
	77.25			  10.06204			  0.50416			 0.13444
	77.50			  9.98254			  0.57442			 0.16032
	77.75			  9.91520			  0.57018			 0.17553
	78.00			  9.77534			  0.42799			 0.25450
	78.25			  9.71319			  0.24872			 0.29767
	78.50			  9.65048			  0.08458			 0.21341
	78.75			  9.62048			  0.15116			 0.18402
	79.00			  9.66113			  0.14618			 0.00904
	79.25			  9.75799			  0.07775			 0.13957
	79.50			  9.53721			  -0.00727			 0.23325
	79.75			  9.56484			  0.15945			 0.23416
	80.00			  9.60926			  0.12829			 0.34818
	80.25			  9.67650			  0.06410			 0.31157
	80.50			  9.68942			  0.10486			 0.18100
	80.75			  9.72385			  0.27306			 0.16505
	81.00			  9.91228			  0.14083			 0.16523
	81.25			  9.80156			  0.03478			 0.17117
	81.50			  9.76431			  0.06171			 0.10443
	81.75			  9.74007			  -0.07108			 -0.00194
	82.00			  9.81872			  -0.03918			 0.09836
	82.25			  9.58889			  -0.15426			 -0.04981
	82.50			  9.52240			  -0.03457			 -0.13484
	82.75			  9.48855			  -0.00801			 0.06965
	83.00			  9.38877			  -0.00912			 0.07012
	83.25			  9.38631			  -0.00819			 0.20234
	83.50			  9.24730			  -0.07367			 0.05703
	83.75			  9.23683			  0.00029			 -0.05883
	84.00			  9.13526			  0.05820			 0.01566
	84.25			  9.29333			  -0.08547			 0.17366
	84.50			  9.58917			  -0.06500			 0.00972
	84.75			  9.57210			  0.14654			 -0.01180
	85.00			  9.58106			  0.12976			 -0.00549
	85.25			  9.71942			  0.32950			 0.12240
	85.50			  9.76233			  0.45436			 0.22881
	85.75			  9.72187			  0.48295			 -0.01638
	86.00			  9.71263			  0.52094			 -0.15733
	86.25			  9.67566			  0.54953			 -0.19525
	86.50			  9.71310			  0.47391			 -0.16501
	86.75			  9.68688			  0.34149			 -0.03777
	87.00			  9.62284			  0.28837			 -0.12181
	87.25			  9.60945			  0.30571			 -0.04104
	87.50			  9.52504			  0.20888			 -0.14436
	87.75			  9.51052			  0.22069			 -0.19176
	88.00			  9.61662			  0.23009			 -0.12010
	88.25			  9.57097			  0.18638			 0.01044
	88.50			  9.51957			  0.11003			 -0.12104
	88.75			  9.56626			  0.14230			 -0.15839
	89.00			  9.38584			  0.16536			 -0.05616
	89.25			  9.49072			  0.16923			 -0.12041
	89.50			  9.48902			  0.00029			 -0.25375
	89.75			  9.44205			  -0.20332			 -0.33642
	90.00			  9.47431			  -0.24463			 -0.38211
	90.25			  9.51854			  -0.17805			 -0.33418
	90.50			  9.52259			  -0.43792			 -0.35937
	90.75			  9.49581			  -0.53106			 -0.31689
	91.00			  9.31266			  -0.53253			 -0.25689
	91.25			  9.10659			  -0.41099			 -0.37570
	91.50			  9.23825			  -0.53788			 -0.26790
	91.75			  9.27682			  -0.47259			 -0.13466
	92.00			  9.25862			  -0.42279			 -0.18259
	92.25			  9.32313			  -0.39495			 -0.33555
	92.50			  9.36236			  -0.29628			 -0.33144
	92.75			  9.39405			  -0.05559			 0.00988
	93.00			  9.30813			  -0.12254			 0.21276
	93.25			  9.29116			  -0.37742			 -0.03843
	93.50			  9.29946			  -0.17769			 0.04045
	93.75			  9.42036			  -0.13600			 -0.03351
	94.00			  9.52193			  -0.05485			 -0.21913
	94.25			  9.52061			  -0.05928			 -0.19478
	94.50			  9.41027			  0.09085			 -0.26137
	94.75			  9.33690			  0.21017			 -0.16200
	95.00			  9.37368			  0.20095			 -0.02567
	95.25			  9.40263			  0.28118			 -0.09251
	95.50			  9.48534			  0.36233			 -0.07248
	95.75			  9.45620			  0.40143			 -0.15320
	96.00			  9.31379			  0.51412			 -0.11099
	96.25			  9.26711			  0.57904			 -0.29014
	96.50			  9.23004			  0.58438			 -0.29110
	96.75			  9.41074			  0.68637			 0.04057
	97.00			  9.38433			  0.72990			 -0.03193
	97.25			  9.31021			  0.53293			 -0.06020
	97.50			  9.50420			  0.61113			 -0.02617
	97.75			  9.39716			  0.57516			 -0.01703
	98.00			  9.19053			  0.54344			 -0.04418
	98.25			  9.15620			  0.34997			 -0.00820
	98.50			  9.02209			  0.21903			 -0.09594
	98.75			  9.08405			  0.04677			 -0.11998
	99.00			  9.16714			  -0.13914			 -0.12694
	99.25			  9.07368			  -0.11166			 -0.02524
	99.50			  8.82593			  0.04418			 0.20949
	99.75			  8.95683			  0.28911			 0.20035
	100.00			  9.09820			  0.32526			 0.06726
	100.25			  9.16384			  0.32360			 -0.10667
	100.50			  9.19109			  0.52850			 -0.18542
	100.75			  9.27522			  0.40715			 -0.06558
	101.00			  9.15082			  0.41176			 -0.13817
	101.25			  9.20185			  0.40198			 -0.06639
	101.50			  9.46884			  0.48295			 -0.01840
	101.75			  9.35925			  0.49807			 -0.04278
	102.00			  9.49845			  0.57092			 -0.03165
	102.25			  9.55409			  0.55617			 0.09286
	102.50			  9.47930			  0.62311			 0.07718
	102.75			  9.43932			  0.47871			 -0.02981
	103.00			  9.51335			  0.54252			 -0.04004
	103.25			  9.47006			  0.47041			 -0.10583
	103.50			  9.52938			  0.34813			 -0.08614
	103.75			  9.52325			  0.39460			 -0.04598
	104.00			  9.32681			  0.33632			 0.01837
	104.25			  9.35934			  0.20630			 -0.12505
	104.50			  9.34491			  0.22382			 -0.17665
	104.75			  9.42470			  0.27177			 -0.16271
	105.00			  9.50260			  0.19726			 -0.30476
	105.25			  9.43451			  0.13161			 -0.33925
	105.50			  9.41631			  0.02021			 -0.46973
	105.75			  9.52193			  0.05746			 -0.17201
	106.00			  9.66660			  0.26255			 -0.11780
	106.25			  9.61087			  0.43499			 -0.19158
	106.50			  9.48364			  0.55340			 -0.24694
	106.75			  9.52165			  0.52002			 -0.18141
	107.00			  9.42206			  0.39977			 -0.34902
	107.25			  9.23118			  0.26384			 -0.36137
	107.50			  9.28399			  0.21829			 -0.26821
	107.75			  9.23485			  0.34020			 -0.11385
	108.00			  9.25900			  0.41305			 -0.08682
	108.25			  9.25522			  0.28284			 -0.05003
	108.50			  9.26013			  0.30294			 -0.05105
	108.75			  9.29389			  0.27860			 -0.27754
	109.00			  9.29502			  0.13898			 -0.20884
	109.25			  9.21241			  0.04695			 -0.13637
	109.50			  9.17525			  -0.08344			 -0.10026
	109.75			  9.24221			  0.01781			 -0.37122
	110.00			  9.17299			  0.27657			 -0.28190
	110.25			  9.12696			  0.25278			 -0.26090
	110.50			  9.06670			  0.33743			 -0.25773
	110.75			  9.29700			  0.39128			 -0.19895
	111.00			  9.34803			  0.46174			 -0.16974
	111.25			  9.46893			  0.23673			 -0.04841
	111.50			  9.48591			  0.23931			 -0.11575
	111.75			  9.47440			  0.19634			 -0.06455
	112.00			  9.44658			  0.04658			 -0.08632
	112.25			  9.58474			  0.03957			 0.11706
	112.50			  9.58889			  0.13751			 0.03392
	112.75			  9.56569			  0.18915			 -0.00739
	113.00			  9.54334			  0.14027			 0.12754
	113.25			  9.52891			  -0.06758			 -0.08132
	113.50			  9.82815			  0.15872			 0.17895
	113.75			  9.63510			  0.06945			 0.27832
	114.00			  9.64755			  0.01523			 0.09018
	114.25			  9.67349			  0.21755			 0.24044
	114.50			  9.68414			  -0.05688			 0.21263
	114.75			  9.56494			  -0.12125			 0.03087
	115.00			  9.53023			  -0.06113			 0.07606
	115.25			  9.45969			  -0.10170			 0.20349
	115.50			  9.39593			  -0.03033			 0.17696
	115.75			  9.38603			  -0.21107			 0.17932
	116.00			  9.34972			  -0.36488			 0.07749
	116.25			  9.32435			  -0.29996			 0.00468
	116.50			  9.45799			  -0.31453			 0.10617
	116.75			  9.47761			  -0.19078			 0.03292
	117.00			  9.43215			  -0.19834			 0.00484
	117.25			  9.38962			  0.07074			 0.01980
	117.50			  9.39244			  -0.15666			 -0.02745
	117.75			  9.39575			  -0.08547			 0.01491
	118.00			  9.43705			  0.08181			 -0.06067
	118.25			  9.59578			  -0.08879			 0.08801
	118.50			  9.67037			  0.00509			 0.14558
	118.75			  9.74667			  0.04437			 0.15519
	119.00			  9.67801			  -0.10686			 0.10094
	119.25			  9.66519			  -0.18525			 -0.12197
	119.50			  9.72158			  -0.13674			 -0.04502
	119.75			  9.81024			  -0.02424			 -0.16722
	120.00			  9.76761			  -0.09082			 -0.21319
	120.25			  9.64821			  -0.02350			 -0.19092
	120.50			  9.70876			  -0.09340			 -0.19907
	120.75			  9.48826			  0.07738			 0.03874
	121.00			  9.47770			  -0.07920			 0.22097
	121.25			  9.42102			  -0.10188			 0.33857
	121.50			  9.44875			  -0.09432			 0.15659
	121.75			  9.48779			  -0.19484			 0.07538
	122.00			  9.45224			  -0.24777			 0.03718
	122.25			  9.41649			  -0.25570			 -0.08035
	122.50			  9.42885			  -0.13582			 0.04906
	122.75			  9.57239			  -0.17935			 0.00677
	123.00			  9.60502			  -0.12973			 -0.10212
	123.25			  9.69329			  -0.04324			 -0.15581
	123.50			  9.56050			  -0.14062			 -0.20902
	123.75			  9.74686			  -0.08565			 -0.13830
	124.00			  9.61039			  -0.12512			 -0.15674
	124.25			  9.58634			  -0.18211			 0.06598
	124.50			  9.72394			  -0.11867			 -0.02116
	124.75			  9.72951			  -0.13896			 -0.09656
	125.00			  9.68707			  -0.03567			 -0.06194
	125.25			  9.65943			  0.30331			 -0.05435
	125.50			  9.65274			  0.28671			 -0.12240
	125.75			  9.58616			  0.43481			 -0.17055
	126.00			  9.52269			  0.35790			 -0.08620
	126.25			  9.56239			  0.37339			 0.00677
	126.50			  9.53881			  0.47963			 0.01068
	126.75			  9.60389			  0.60301			 0.05267
	127.00			  9.47515			  0.63363			 0.06381
	127.25			  9.30332			  0.53865			 0.06822
	127.50			  9.38217			  0.41913			 -0.00325
	127.75			  9.33492			  0.23544			 0.03361
	128.00			  9.25249			  0.20040			 0.05426
	128.25			  9.25749			  0.29280			 0.07286
	128.50			  9.19590			  0.33153			 -0.02950
	128.75			  9.25051			  0.18933			 -0.02627
	129.00			  9.19468			  0.07628			 -0.17438
	129.25			  9.12366			  0.13161			 -0.31356
	129.50			  9.37462			  0.16775			 -0.02807
	129.75			  9.53740			  0.31290			 0.00244
	130.00			  9.52108			  0.27860			 0.06387
	130.25			  9.43620			  0.35071			 0.01613
	130.50			  9.48732			  0.33946			 0.16505
	130.75			  9.62511			  0.39387			 0.14520
	131.00			  9.73375			  0.41249			 -0.01880
	131.25			  9.72705			  0.39774			 -0.02913
	131.50			  9.68594			  0.51725			 0.17721
	131.75			  9.68084			  0.29114			 0.09447
	132.00			  9.87371			  0.28985			 0.14247
	132.25			  9.77430			  0.03699			 0.13164
	132.50			  9.72413			  0.21976			 0.05423
	132.75			  9.68509			  0.19228			 -0.00708
	133.00			  9.77760			  0.34776			 -0.07693
	133.25			  9.90973			  0.56576			 -0.17907
	133.50			  9.73564			  0.48959			 -0.15659
	133.75			  9.69065			  0.53772			 -0.00213
	134.00			  9.67603			  0.05986			 -0.03081
	134.25			  9.62614			  -0.06223			 -0.05628
	134.50			  9.58955			  -0.07496			 -0.18063
	134.75			  9.60709			  0.01449			 -0.31543
	135.00			  9.60709			  -0.11830			 -0.36653
	135.25			  9.54230			  -0.25902			 -0.46920
	135.50			  9.61153			  -0.19779			 -0.53694
	135.75			  9.79845			  -0.06002			 -0.55103
	136.00			  9.69461			  -0.01317			 -0.54860
	136.25			  9.68971			  -0.26732			 -0.50347
	136.50			  9.64793			  -0.01317			 -0.38830
	136.75			  9.48751			  0.11335			 -0.39110
	137.00			  9.64897			  -0.00930			 -0.12309
	137.25			  9.67160			  -0.13785			 -0.05255
	137.50			  9.55862			  -0.00045			 -0.05591
	137.75			  9.57069			  0.03459			 0.09140
	138.00			  9.56050			  0.04621			 0.00316
	138.25			  9.64104			  0.10357			 0.13569
	138.50			  9.52514			  -0.04729			 0.02776
	138.75			  9.58370			  0.08476			 -0.05109
	139.00			  9.53287			  0.08421			 0.02353
	139.25			  9.50109			  0.00047			 0.02963
	139.50			  9.65595			  0.23894			 -0.10480
	139.75			  9.48826			  0.27897			 -0.10607
	140.00			  9.55192			  0.30442			 -0.12666
	140.25			  9.54589			  0.22069			 -0.21406
	140.50			  9.54768			  0.21607			 -0.24429
	140.75			  9.68537			  0.24024			 -0.12648
	141.00			  9.82938			  0.25554			 -0.10975
	141.25			  9.72423			  0.22105			 -0.16837
	141.50			  9.84051			  -0.01078			 -0.06147
	141.75			  9.72998			  0.04787			 -0.03824
	142.00			  9.80807			  0.29778			 0.07137
	142.25			  9.97198			  0.13308			 0.09702
	142.50			  9.99301			  0.26661			 -0.08306
	142.75			  9.96132			  0.19265			 -0.05003
	143.00			  10.05591			  0.32194			 0.01899
	143.25			  9.90841			  0.30903			 0.09429
	143.50			  9.85145			  0.33762			 -0.07805
	143.75			  9.86559			  0.26440			 -0.01638
	144.00			  9.93133			  0.45196			 -0.05989
	144.25			  9.92746			  0.42116			 -0.06788
	144.50			  9.89775			  0.43112			 -0.10402
	144.75			  9.84871			  0.28671			 -0.02387
	145.00			  9.88153			  0.40088			 -0.01547
	145.25			  9.94849			  0.47262			 -0.10069
	145.50			  9.99329			  0.36602			 -0.17718
	145.75			  10.25057			  0.25001			 -0.02182
	146.00			  10.09958			  0.13290			 -0.03354
	146.25			  10.16606			  -0.27654			 0.05227
	146.50			  10.31290			  -0.26990			 0.14268
	146.75			  10.25547			  -0.29794			 0.12116
	147.00			  10.15975			  -0.43681			 0.00272
	147.25			  10.23406			  -0.38001			 -0.04844
	147.50			  10.28291			  -0.27617			 -0.11945
	147.75			  10.34167			  -0.15150			 -0.11267
	148.00			  10.41004			  -0.13232			 -0.03071
	148.25			  10.30083			  -0.00303			 -0.13105
	148.50			  10.15258			  -0.06297			 -0.18340
	148.75			  10.16201			  -0.11738			 -0.18436
	149.00			  10.05959			  -0.26566			 -0.31288
	149.25			  10.14692			  -0.27746			 -0.26908
	149.50			  10.30074			  -0.32966			 -0.15963
	149.75			  10.30649			  -0.23597			 0.06088
	150.00			  10.07298			  -0.11572			 0.30404
	150.25			  9.99423			  -0.00469			 0.17018
	150.50			  9.93095			  -0.22896			 0.36889
	150.75			  9.88087			  -0.13822			 0.30719
	151.00			  10.10457			  -0.24556			 0.57479
	151.25			  10.23416			  -0.42888			 0.38140
	151.50			  10.13551			  -0.33058			 0.37054
	151.75			  10.28103			  -0.40472			 0.41996
	152.00			  10.42598			  -0.37503			 0.28796
	152.25			  10.36034			  -0.38572			 0.28911
	152.50			  10.23368			  -0.42556			 0.12051
	152.75			  10.22642			  -0.34404			 0.13992
	153.00			  10.43353			  -0.30605			 0.18063
	153.25			  10.24585			  -0.32412			 0.19248
	153.50			  10.21275			  -0.18931			 -0.01774
	153.75			  10.25405			  -0.18027			 0.13615
	154.00			  10.29423			  -0.14393			 -0.05429
	154.25			  10.36628			  -0.37079			 -0.04082
	154.50			  10.38448			  -0.43239			 0.14520
	154.75			  10.36760			  -0.25699			 -0.00711
	155.00			  10.19134			  -0.28761			 0.00795
	155.25			  10.15343			  -0.29517			 0.11338
	155.50			  10.33120			  -0.11904			 0.04906
	155.75			  10.49275			  -0.10207			 -0.00683
	156.00			  10.37260			  -0.22914			 -0.14853
	156.25			  10.13994			  -0.12494			 0.01970
	156.50			  10.20313			  -0.02000			 0.11584
	156.75			  10.12296			  -0.04729			 -0.15687
	157.00			  10.20454			  0.08753			 -0.26943
	157.25			  10.14277			  -0.04471			 -0.19895
	157.50			  10.04403			  0.01947			 -0.03096
	157.75			  9.97952			  -0.03641			 0.04272
	158.00			  9.93161			  0.03386			 0.04393
	158.25			  10.01762			  -0.20461			 0.15183
	158.50			  10.01564			  -0.22269			 0.06424
	158.75			  10.01979			  -0.18543			 0.25761
	159.00			  9.97339			  -0.12807			 0.26112
	159.25			  9.98433			  -0.15113			 0.29260
	159.50			  10.02121			  -0.17621			 0.07877
	159.75			  10.07855			  -0.06481			 0.15242
	160.00			  10.13211			  0.04603			 0.27742
	160.25			  10.12278			  0.04142			 0.17208
	160.50			  10.21954			  -0.18543			 0.13472
	160.75			  10.45427			  -0.03899			 0.08682
	161.00			  10.38769			  -0.15408			 0.15917
	161.25			  10.34544			  -0.36894			 0.02344
	161.50			  10.32611			  -0.18267			 0.09127
	161.75			  10.45607			  -0.37097			 0.13995
	162.00			  10.45210			  -0.49694			 0.18498
	162.25			  10.48464			  -0.49251			 0.29126
	162.50			  10.54575			  -0.66053			 0.07230
	162.75			  10.39043			  -0.65960			 -0.04919
	163.00			  10.38873			  -0.72157			 -0.05874
	163.25			  10.40608			  -0.49638			 -0.05401
	163.50			  10.49964			  -0.44216			 0.06832
	163.75			  10.51680			  -0.52257			 0.19736
	164.00			  10.37647			  -0.59007			 0.15823
	164.25			  10.56065			  -0.81102			 0.10601
	164.50			  10.42428			  -0.77026			 0.22803
	164.75			  10.32365			  -0.61645			 0.09917
	165.00			  10.25811			  -0.69852			 -0.04965
	165.25			  10.19756			  -0.81803			 0.11945
	165.50			  10.32564			  -0.70922			 0.18663
	165.75			  10.40693			  -0.43902			 0.20346
	166.00			  10.52510			  -0.49638			 0.35067
	166.25			  10.45541			  -0.37115			 0.31956
	166.50			  10.39524			  -0.29462			 0.25462
	166.75			  10.43984			  -0.41948			 0.33496
	167.00			  10.51633			  -0.33925			 0.20349
	167.25			  10.68128			  -0.30236			 0.10349