--------------TurbSim v2.00.* User Time Series Input File-----------------------
     Time series input from low-res turbsim run
--------------------------------------------------------------------------------
          3 nComp - Number of velocity components in the file
          1 nPoints - Number of time series points contained in this file (-)
          1 RefPtID - Index of the reference point (1-nPoints)
     Pointyi Pointzi ! nPoints listed in order of increasing height
       (m)     (m)
       0.17775   94.00000
--------Time Series-------------------------------------------------------------
Elapsed Time         Point01u             Point01v           Point01w
         (s)            (m/s)                (m/s)              (m/s)
	0.00			  9.93286			  -0.51530			 -0.10088
	0.25			  9.83085			  -0.70373			 -0.11441
	0.50			  9.53587			  -0.67222			 -0.23067
	0.75			  9.49612			  -0.47438			 -0.09931
	1.00			  9.77715			  -0.47745			 -0.03094
	1.25			  9.73740			  -0.15418			 -0.12592
	1.50			  9.91079			  -0.11326			 -0.16553
	1.75			  9.78165			  -0.18651			 -0.11571
	2.00			  9.95864			  -0.16380			 -0.06459
	2.25			  10.05276			  -0.21720			 0.28200
	2.50			  10.07359			  -0.05270			 0.22331
	2.75			  9.86519			  -0.01465			 -0.18699
	3.00			  9.56401			  -0.00176			 -0.46077
	3.25			  9.60027			  -0.25669			 -0.17229
	3.50			  9.49533			  -0.12411			 -0.05160
	3.75			  9.39738			  -0.09567			 -0.13439
	4.00			  9.27815			  0.28304			 -0.24971
	4.25			  8.93993			  0.24457			 -0.06687
	4.50			  8.94736			  0.43280			 -0.00500
	4.75			  9.27061			  0.03323			 -0.08712
	5.00			  9.30607			  0.12816			 0.06825
	5.25			  9.21184			  0.05123			 0.17277
	5.50			  9.46539			  0.01195			 0.23550
	5.75			  9.64361			  0.01706			 0.00853
	6.00			  9.40335			  -0.11817			 0.22241
	6.25			  9.24178			  0.08356			 0.20646
	6.50			  9.20677			  0.00847			 0.02237
	6.75			  9.09958			  -0.00401			 0.12147
	7.00			  9.17547			  -0.17587			 0.23989
	7.25			  9.24775			  0.01174			 0.32407
	7.50			  9.27567			  -0.12002			 0.46847
	7.75			  9.39941			  -0.33198			 0.42635
	8.00			  9.68212			  -0.45719			 0.36609
	8.25			  9.64181			  -0.27674			 0.39522
	8.50			  9.91338			  -0.21556			 0.28787
	8.75			  9.70520			  0.04018			 0.19553
	9.00			  9.52551			  0.10545			 0.03057
	9.25			  9.53204			  -0.10447			 0.21184
	9.50			  9.59160			  -0.17853			 0.10821
	9.75			  9.60533			  0.16990			 0.06332
	10.00			  9.43454			  0.04121			 0.26852
	10.25			  9.50277			  0.12877			 0.39127
	10.50			  9.32690			  0.09358			 0.44521
	10.75			  9.46539			  -0.01833			 0.21614
	11.00			  9.37475			  -0.16237			 0.17394
	11.25			  9.23615			  -0.27264			 0.38164
	11.50			  9.31249			  -0.44246			 0.17716
	11.75			  9.43791			  -0.42732			 0.31484
	12.00			  9.52022			  -0.39765			 0.26739
	12.25			  9.76532			  -0.36471			 0.05432
	12.50			  9.83378			  -0.17648			 0.14845
	12.75			  9.94806			  -0.15234			 0.08357
	13.00			  9.90088			  -0.11020			 -0.35768
	13.25			  9.60207			  -0.16155			 -0.23734
	13.50			  9.59970			  0.16233			 -0.05469
	13.75			  9.70959			  0.52160			 -0.08148
	14.00			  9.84492			  0.42503			 0.08908
	14.25			  9.89007			  0.64701			 -0.07207
	14.50			  9.85652			  0.81130			 -0.07055
	14.75			  10.16456			  0.79637			 0.19800
	15.00			  10.05862			  0.73663			 0.06677
	15.25			  10.04522			  0.86614			 0.18003
	15.50			  10.21422			  0.57561			 0.10176
	15.75			  10.00581			  0.52467			 -0.51709
	16.00			  10.10906			  0.66502			 -0.46095
	16.25			  10.35202			  0.66399			 -0.51113
	16.50			  10.66277			  0.54840			 -0.94526
	16.75			  10.28323			  0.38063			 -0.51655
	17.00			  10.19102			  0.38083			 -0.54527
	17.25			  10.18990			  0.31782			 -0.51418
	17.50			  10.36216			  0.62430			 -0.29433
	17.75			  10.27659			  0.75668			 -0.22180
	18.00			  10.49220			  0.53408			 -0.02467
	18.25			  10.84280			  0.63678			 0.04558
	18.50			  11.05818			  0.76977			 0.02649
	18.75			  10.86025			  0.79146			 0.11659
	19.00			  10.67290			  0.48763			 0.06928
	19.25			  10.54084			  0.56968			 -0.05195
	19.50			  10.41924			  0.81601			 -0.01902
	19.75			  10.51550			  0.42585			 -0.31844
	20.00			  10.43095			  0.01563			 -0.05867
	20.25			  10.53093			  -0.06928			 0.13536
	20.50			  10.71861			  0.00642			 0.38469
	20.75			  10.62674			  0.37265			 -0.03560
	21.00			  10.61796			  0.14289			 -0.35665
	21.25			  10.71400			  0.17215			 -0.30634
	21.50			  10.65725			  0.37204			 -0.28963
	21.75			  10.74845			  0.25849			 -0.34957
	22.00			  11.15118			  0.24498			 -0.19030
	22.25			  11.08554			  -0.15296			 -0.08439
	22.50			  11.32693			  -0.05311			 -0.04125
	22.75			  11.17212			  0.10402			 -0.12409
	23.00			  11.25927			  0.09829			 -0.19944
	23.25			  11.29406			  0.16703			 -0.40611
	23.50			  11.47589			  0.39863			 -0.48837
	23.75			  11.40259			  0.41930			 -0.28828
	24.00			  11.12855			  0.39209			 0.00418
	24.25			  10.91632			  0.54328			 0.19060
	24.50			  10.80227			  0.64906			 0.30700
	24.75			  10.66649			  0.46942			 0.42832
	25.00			  10.69733			  0.57929			 0.33455
	25.25			  10.84156			  0.48784			 0.25543
	25.50			  10.68045			  0.39270			 0.05476
	25.75			  10.93175			  0.42319			 -0.04169
	26.00			  11.01585			  0.38145			 -0.09331
	26.25			  11.29496			  0.55617			 -0.42955
	26.50			  11.12833			  0.36754			 -0.12422
	26.75			  11.13238			  0.14105			 0.16641
	27.00			  11.12855			  0.31823			 0.36031
	27.25			  11.01067			  0.26687			 0.01897
	27.50			  11.27075			  0.37633			 -0.11763
	27.75			  11.08734			  0.60834			 -0.11504
	28.00			  11.20646			  0.39843			 -0.08323
	28.25			  11.31770			  0.76568			 0.02367
	28.50			  11.05807			  0.74358			 -0.06499
	28.75			  11.40867			  0.66318			 0.03693
	29.00			  11.46159			  0.81294			 -0.32063
	29.25			  11.65141			  0.60507			 -0.13533
	29.50			  11.41396			  0.67136			 -0.41884
	29.75			  11.56157			  0.42625			 -0.44267
	30.00			  11.59456			  0.32375			 -0.36947
	30.25			  11.50539			  -0.08687			 -0.32404
	30.50			  11.34911			  -0.02017			 -0.23546
	30.75			  11.23675			  0.14719			 -0.21620
	31.00			  11.17663			  0.53715			 -0.22592
	31.25			  10.88491			  0.62451			 -0.15061
	31.50			  10.93332			  0.48907			 -0.32883
	31.75			  10.73201			  0.63065			 -0.26458
	32.00			  10.61886			  0.57991			 -0.34590
	32.25			  10.80610			  0.54901			 -0.21257
	32.50			  10.79529			  0.49479			 -0.23389
	32.75			  10.75813			  0.47045			 -0.13094
	33.00			  10.86633			  0.37654			 -0.37731
	33.25			  10.69902			  0.40048			 -0.34689
	33.50			  10.78313			  0.21245			 -0.24693
	33.75			  10.88570			  0.28979			 -0.31275
	34.00			  10.69891			  0.12591			 -0.24442
	34.25			  10.43421			  0.15987			 -0.02749
	34.50			  10.35450			  0.01829			 -0.36082
	34.75			  10.34730			  -0.18385			 -0.32758
	35.00			  10.47779			  -0.36799			 -0.53591
	35.25			  10.52260			  -0.16953			 -0.34178
	35.50			  10.47621			  0.25603			 -0.31015
	35.75			  10.33986			  0.14739			 -0.59858
	36.00			  10.45516			  0.22636			 -0.46848
	36.25			  10.67166			  0.61326			 -0.23564
	36.50			  10.72458			  0.48272			 -0.23009
	36.75			  10.84629			  0.27404			 -0.01831
	37.00			  10.61278			  0.02913			 -0.01114
	37.25			  10.46473			  0.45347			 -0.05142
	37.50			  10.54421			  0.25664			 0.06032
	37.75			  10.55210			  0.34933			 0.05145
	38.00			  10.78853			  0.58154			 -0.09277
	38.25			  10.93208			  0.49500			 -0.25948
	38.50			  10.95640			  0.27833			 -0.39738
	38.75			  11.24767			  0.24212			 -0.52668
	39.00			  11.21434			  0.28120			 -0.57838
	39.25			  11.21783			  0.17133			 -0.67815
	39.50			  11.06449			  0.51689			 -0.38300
	39.75			  11.00876			  0.49582			 -0.20773
	40.00			  11.19385			  0.16560			 -0.07807
	40.25			  10.99378			  0.36078			 -0.38062
	40.50			  11.15737			  0.54738			 -0.31552
	40.75			  11.05176			  0.47352			 -0.11374
	41.00			  11.01990			  0.47433			 -0.18300
	41.25			  10.78268			  0.43935			 0.08245
	41.50			  10.76331			  0.51259			 0.15481
	41.75			  10.57551			  0.54472			 0.32438
	42.00			  10.63440			  0.57090			 0.24302
	42.25			  10.77964			  0.26176			 0.07864
	42.50			  10.78302			  0.32314			 -0.25598
	42.75			  10.84753			  0.23803			 -0.15746
	43.00			  10.73201			  0.31332			 -0.18667
	43.25			  10.45943			  0.42237			 -0.23596
	43.50			  10.48736			  0.50584			 0.00669
	43.75			  10.62111			  0.65908			 0.25113
	44.00			  10.56459			  0.55290			 0.15311
	44.25			  10.40573			  0.24253			 0.25991
	44.50			  10.09859			  0.11118			 0.00432
	44.75			  10.03914			  0.10217			 -0.21248
	45.00			  9.91777			  0.07046			 -0.07731
	45.25			  9.77928			  -0.04063			 0.09285
	45.50			  10.13180			  0.12243			 0.28836
	45.75			  10.40573			  0.10893			 0.36632
	46.00			  10.53780			  -0.05250			 0.20185
	46.25			  10.49096			  -0.01444			 -0.03099
	46.50			  10.57169			  0.23127			 -0.06795
	46.75			  10.76038			  0.19793			 -0.10142
	47.00			  10.70859			  0.26708			 -0.08461
	47.25			  10.94627			  0.41746			 0.13931
	47.50			  10.93287			  0.36958			 0.04137
	47.75			  10.74586			  0.07128			 0.07990
	48.00			  10.93051			  0.08417			 0.30839
	48.25			  10.79596			  0.42298			 0.45355
	48.50			  10.75768			  0.10483			 0.47380
	48.75			  10.57529			  -0.02324			 0.34271
	49.00			  10.76905			  -0.10692			 0.41676
	49.25			  10.65703			  0.18913			 0.49306
	49.50			  10.59026			  0.26994			 0.25924
	49.75			  10.65365			  0.23455			 0.08129
	50.00			  10.69216			  0.57827			 0.14016
	50.25			  10.93163			  0.44835			 0.11807
	50.50			  10.80812			  0.28815			 0.11507
	50.75			  10.87725			  0.63003			 -0.06916
	51.00			  10.84404			  0.39147			 -0.01351
	51.25			  10.68394			  0.20018			 -0.16929
	51.50			  10.69520			  0.60487			 -0.04770
	51.75			  10.63507			  0.37633			 -0.20361
	52.00			  10.61008			  0.25767			 -0.18909
	52.25			  10.50289			  0.36692			 -0.11194
	52.50			  10.47294			  0.10709			 -0.08954
	52.75			  10.31442			  0.33091			 -0.21915
	53.00			  10.53892			  0.37817			 -0.33945
	53.25			  10.49704			  0.37122			 -0.11822
	53.50			  10.27625			  0.40129			 -0.31929
	53.75			  10.03644			  0.50134			 -0.40468
	54.00			  10.39807			  0.68507			 -0.39442
	54.25			  10.61301			  0.54246			 -0.38757
	54.50			  10.97307			  0.52037			 -0.46740
	54.75			  11.02722			  0.41766			 -0.59840
	55.00			  10.95618			  0.57295			 -0.49536
	55.25			  10.66660			  0.75668			 -0.47780
	55.50			  10.78583			  1.14827			 -0.44357
	55.75			  10.87815			  1.09999			 -0.45880
	56.00			  10.62922			  1.04741			 -0.40934
	56.25			  10.61593			  1.07728			 -0.31974
	56.50			  10.73730			  0.82358			 -0.14357
	56.75			  10.97847			  0.95473			 -0.12561
	57.00			  10.77761			  0.78000			 -0.14801
	57.25			  10.57731			  0.80803			 0.05082
	57.50			  10.61728			  1.12904			 0.00714
	57.75			  10.35630			  0.87903			 -0.00415
	58.00			  10.48634			  1.10879			 -0.03690
	58.25			  10.56121			  1.11042			 -0.05944
	58.50			  10.63462			  0.90030			 0.04993
	58.75			  10.71411			  1.03309			 0.30803
	59.00			  10.71411			  0.96291			 0.07183
	59.25			  10.72165			  0.88291			 0.13478
	59.50			  10.90517			  1.23338			 -0.01226
	59.75			  10.86307			  1.10081			 -0.10495
	60.00			  10.85710			  0.96025			 0.15714
	60.25			  10.72334			  1.02572			 0.06054
	60.50			  10.49873			  1.06623			 0.09898
	60.75			  10.28087			  0.82542			 -0.10038
	61.00			  10.16963			  0.88660			 0.04921
	61.25			  10.26736			  0.44467			 0.23137
	61.50			  10.17076			  0.43157			 -0.29088
	61.75			  10.29911			  0.47393			 -0.26306
	62.00			  10.24968			  0.43362			 -0.09366
	62.25			  10.63710			  0.32437			 -0.10581
	62.50			  10.81251			  0.69571			 -0.02189
	62.75			  10.55806			  0.54778			 -0.20858
	63.00			  10.53577			  0.58032			 0.01323
	63.25			  10.23977			  0.69673			 -0.07382
	63.50			  10.28323			  0.59484			 -0.10388
	63.75			  10.69047			  0.45081			 -0.01795
	64.00			  10.51325			  0.42012			 -0.04326
	64.25			  10.58947			  0.49807			 -0.00393
	64.50			  10.78144			  0.48190			 0.16242
	64.75			  10.82366			  0.46533			 0.11090
	65.00			  10.56797			  0.38493			 0.25118
	65.25			  10.25362			  0.25992			 0.01561
	65.50			  10.36779			  0.08519			 -0.01732
	65.75			  10.34820			  0.38595			 -0.27081
	66.00			  10.41519			  0.60180			 -0.34984
	66.25			  10.54883			  0.67034			 -0.24191
	66.50			  10.76962			  0.43955			 -0.41964
	66.75			  10.99052			  0.31802			 -0.74643
	67.00			  10.76950			  0.35526			 -0.64459
	67.25			  10.98928			  0.27895			 -0.58263
	67.50			  10.84595			  0.06085			 -0.51001
	67.75			  10.86768			  -0.01670			 -0.28138
	68.00			  10.98016			  0.08642			 -0.14837
	68.25			  10.90461			  0.01727			 -0.28994
	68.50			  10.87095			  -0.09751			 -0.18233
	68.75			  10.70713			  0.12386			 -0.05639
	69.00			  10.72424			  0.47638			 -0.34308
	69.25			  10.86318			  0.56927			 -0.29115
	69.50			  10.63192			  0.59361			 -0.20890
	69.75			  10.56988			  0.69816			 -0.11468
	70.00			  10.31577			  0.69100			 -0.21566
	70.25			  10.25846			  0.64435			 -0.25504
	70.50			  10.50593			  0.46145			 -0.43868
	70.75			  10.57315			  0.45347			 -0.47018
	71.00			  10.26285			  0.49541			 -0.58989
	71.25			  10.17199			  0.44324			 -0.52708
	71.50			  10.25250			  0.46288			 -0.49567
	71.75			  10.62235			  0.33726			 -0.22995
	72.00			  10.66243			  0.48231			 -0.11822
	72.25			  10.80204			  0.58523			 -0.10939
	72.50			  10.82186			  0.56968			 -0.34514
	72.75			  10.67673			  0.44303			 -0.48998
	73.00			  10.77952			  0.33009			 -0.33636
	73.25			  10.88029			  0.32293			 0.03734
	73.50			  10.85732			  0.32518			 0.02287
	73.75			  10.82760			  0.14043			 -0.13390
	74.00			  10.75374			  -0.02058			 -0.28654
	74.25			  10.96530			  0.08028			 -0.29429
	74.50			  10.92690			  0.40191			 -0.30710
	74.75			  11.06651			  0.19281			 -0.34586
	75.00			  11.02981			  0.26810			 -0.38134
	75.25			  10.71366			  0.29715			 0.16556
	75.50			  10.90990			  0.13777			 -0.06575
	75.75			  10.97408			  -0.06539			 0.03850
	76.00			  10.77288			  0.20897			 0.30660
	76.25			  10.92859			  0.27997			 0.49562
	76.50			  11.14375			  0.25603			 0.23998
	76.75			  10.95224			  0.17010			 0.33204
	77.00			  10.87590			  0.08703			 -0.15679
	77.25			  10.87872			  0.12693			 -0.58523
	77.50			  10.80441			  -0.32134			 -0.81493
	77.75			  10.72785			  -0.38865			 -0.70678
	78.00			  10.83053			  -0.29740			 -0.40943
	78.25			  10.75554			  -0.21106			 -0.30526
	78.50			  10.50537			  -0.14314			 -0.35634
	78.75			  10.52147			  -0.21208			 -0.23501
	79.00			  10.52260			  -0.29822			 -0.41073
	79.25			  10.52316			  -0.44573			 -0.52349
	79.50			  10.58992			  -0.42875			 -0.41122
	79.75			  10.59116			  -0.57258			 -0.31225
	80.00			  10.75836			  -0.49729			 -0.47672
	80.25			  11.02846			  -0.40113			 -0.46628
	80.50			  11.05548			  -0.26876			 -0.53425
	80.75			  10.99311			  -0.26589			 -0.28824
	81.00			  10.97667			  -0.36574			 -0.30365
	81.25			  11.02001			  -0.52737			 -0.24079
	81.50			  10.74496			  -0.58690			 -0.18994
	81.75			  10.68405			  -0.27244			 -0.29209
	82.00			  10.63170			  -0.50363			 -0.41507
	82.25			  10.74428			  -0.18037			 -0.37569
	82.50			  10.88040			  -0.31070			 -0.38143
	82.75			  10.82512			  -0.28656			 -0.18049
	83.00			  10.83402			  -0.43387			 -0.37686
	83.25			  10.76129			  -0.52389			 -0.42179
	83.50			  10.79349			  -0.35039			 -0.31476
	83.75			  10.72165			  -0.57504			 -0.32731
	84.00			  10.54590			  -0.42998			 -0.30235
	84.25			  10.55795			  -0.28083			 -0.28174
	84.50			  10.43376			  -0.59161			 -0.40360
	84.75			  10.43500			  -0.50670			 -0.04470
	85.00			  10.51978			  -0.15521			 -0.44442
	85.25			  10.58970			  -0.02795			 -0.47851
	85.50			  10.38546			  -0.16196			 -0.30325
	85.75			  10.47610			  -0.17935			 -0.08072
	86.00			  10.43016			  -0.12186			 -0.11598
	86.25			  10.42217			  0.04059			 -0.52224
	86.50			  10.23065			  0.22882			 -0.43891
	86.75			  10.31104			  0.51403			 -0.17677
	87.00			  10.35946			  0.28140			 -0.02839
	87.25			  10.16490			  0.31720			 -0.02301
	87.50			  10.11018			  0.30063			 -0.00204
	87.75			  10.02214			  0.13552			 0.08415
	88.00			  10.13112			  0.19690			 -0.06414
	88.25			  10.32376			  0.28713			 -0.07274
	88.50			  10.34392			  0.13307			 0.02166
	88.75			  10.29449			  0.08008			 0.02891
	89.00			  10.11863			  0.31884			 0.22488
	89.25			  10.04173			  0.12161			 0.07036
	89.50			  9.90876			  0.14657			 0.01632
	89.75			  9.92666			  -0.02938			 -0.18479
	90.00			  9.93488			  0.27997			 -0.12547
	90.25			  10.11536			  0.28079			 0.06838
	90.50			  10.07235			  0.16437			 -0.15464
	90.75			  9.81295			  0.00683			 -0.03385
	91.00			  9.84627			  -0.01690			 0.11417
	91.25			  10.01831			  -0.08278			 0.21502
	91.50			  10.01977			  0.23087			 0.20817
	91.75			  9.98003			  0.05839			 0.12309
	92.00			  9.96371			  0.03773			 0.23057
	92.25			  10.01786			  0.13409			 0.11099
	92.50			  10.28064			  0.50134			 0.06910
	92.75			  10.33198			  0.34053			 0.17748
	93.00			  10.60175			  0.32846			 0.37066
	93.25			  10.36756			  0.52201			 0.29029
	93.50			  10.44806			  0.59054			 0.39992
	93.75			  10.51370			  0.32866			 0.28576
	94.00			  10.38332			  0.43485			 0.30144
	94.25			  10.38681			  0.57786			 0.02555
	94.50			  10.20859			  0.34053			 0.11077
	94.75			  10.07607			  0.25051			 0.02712
	95.00			  9.86418			  0.29224			 -0.00330
	95.25			  9.98104			  0.21409			 0.02107
	95.50			  10.13844			  0.56149			 0.09244
	95.75			  10.22728			  0.33500			 -0.03986
	96.00			  10.20859			  0.31475			 -0.00307
	96.25			  10.30665			  0.19486			 -0.21347
	96.50			  10.02889			  0.15230			 -0.14210
	96.75			  9.90460			  -0.01424			 -0.23551
	97.00			  9.98149			  0.06126			 -0.55835
	97.25			  10.13236			  0.10381			 -0.51807
	97.50			  10.55975			  0.03568			 -0.39290
	97.75			  10.56425			  0.23864			 -0.45741
	98.00			  10.33919			  0.10749			 -0.59079
	98.25			  10.41158			  0.14739			 -0.48313
	98.50			  10.11334			  0.41521			 -0.33071
	98.75			  10.25250			  0.30309			 -0.19769
	99.00			  10.16862			  0.45285			 -0.24559
	99.25			  10.41384			  0.34523			 0.02614
	99.50			  10.60907			  0.29204			 -0.04895
	99.75			  10.67853			  0.03732			 0.04047
	100.00			  10.27456			  0.18974			 0.13312
	100.25			  10.29866			  0.45592			 0.44244
	100.50			  10.59454			  0.42216			 0.39970
	100.75			  10.40021			  0.34953			 0.11354
	101.00			  10.02034			  0.40007			 0.08084
	101.25			  10.40078			  0.62840			 -0.09523
	101.50			  10.29404			  0.65479			 -0.09850
	101.75			  10.33052			  0.31434			 0.06010
	102.00			  10.23234			  0.11486			 0.33191
	102.25			  10.34392			  0.14903			 0.11901
	102.50			  10.26477			  -0.05905			 0.15624
	102.75			  10.46416			  0.14125			 0.08859
	103.00			  10.52113			  0.24416			 0.23079
	103.25			  10.63789			  0.22677			 0.17896
	103.50			  10.68349			  0.55965			 0.04285
	103.75			  10.63327			  0.51444			 -0.25710
	104.00			  10.65714			  0.50032			 -0.13681
	104.25			  10.55086			  0.45940			 0.28182
	104.50			  10.21444			  0.45613			 0.38195
	104.75			  10.52034			  0.52078			 0.31359
	105.00			  10.49794			  0.48722			 0.24921
	105.25			  10.40066			  0.41316			 0.30911
	105.50			  10.46664			  0.21368			 0.40888
	105.75			  10.37792			  0.32089			 0.44871
	106.00			  10.37556			  0.61285			 0.35964
	106.25			  10.26184			  0.72885			 0.32738
	106.50			  10.09003			  0.41234			 0.32967
	106.75			  10.14948			  0.47474			 0.29665
	107.00			  10.36981			  0.55454			 0.24334
	107.25			  10.47407			  0.54901			 0.43204
	107.50			  10.64025			  0.12714			 0.38124
	107.75			  10.42453			  0.01072			 0.19329
	108.00			  10.60467			  0.13900			 0.21444
	108.25			  10.65309			  -0.09178			 0.30485
	108.50			  10.62438			  -0.03613			 -0.05056
	108.75			  10.95370			  -0.25239			 -0.17467
	109.00			  10.91182			  -0.35755			 0.13819
	109.25			  10.81814			  -0.44798			 0.36130
	109.50			  10.88266			  -0.40891			 0.20606
	109.75			  10.91013			  -0.50691			 -0.05733
	110.00			  10.88637			  -0.49443			 -0.15052
	110.25			  10.61942			  -0.81646			 -0.09770
	110.50			  10.39289			  -0.81973			 -0.12919
	110.75			  10.65917			  -0.33873			 -0.13847
	111.00			  10.52586			  -0.34118			 -0.09201
	111.25			  10.45910			  -0.54230			 0.02802
	111.50			  10.58914			  -0.64276			 -0.07780
	111.75			  10.80193			  -0.52327			 -0.22131
	112.00			  10.87905			  -0.52143			 0.06162
	112.25			  10.97307			  -0.35653			 0.13196
	112.50			  10.68855			  -0.28206			 -0.00137
	112.75			  10.48206			  -0.32523			 0.35122
	113.00			  10.69621			  -0.15071			 0.05145
	113.25			  10.71130			  -0.18017			 0.03044
	113.50			  10.69463			  -0.27121			 0.07990
	113.75			  10.47204			  -0.03347			 0.05548
	114.00			  10.36497			  0.04018			 0.28402
	114.25			  10.43095			  -0.14375			 0.34275
	114.50			  10.35979			  -0.25853			 0.25185
	114.75			  10.18033			  -0.59570			 0.16655
	115.00			  10.15770			  -0.49811			 0.45583
	115.25			  10.16085			  -0.45924			 0.11363
	115.50			  10.32568			  -0.75140			 0.10530
	115.75			  10.29843			  -0.74956			 0.21717
	116.00			  10.28807			  -0.56276			 0.36005
	116.25			  10.06650			  -0.62966			 0.07739
	116.50			  10.00716			  -0.49709			 0.13926
	116.75			  10.12527			  -0.50609			 0.06950
	117.00			  10.06380			  -0.76470			 0.18290
	117.25			  9.96359			  -0.86045			 -0.08452
	117.50			  9.93849			  -0.78291			 -0.04528
	117.75			  9.98949			  -0.79989			 0.10727
	118.00			  9.87014			  -0.76695			 0.20718
	118.25			  9.94434			  -0.57852			 0.22981
	118.50			  9.78942			  -0.76593			 0.25866
	118.75			  9.85100			  -0.80889			 -0.09071
	119.00			  9.70374			  -0.48379			 -0.00299
	119.25			  9.63404			  -0.35366			 0.05279
	119.50			  9.82623			  -0.46619			 -0.09245
	119.75			  9.75024			  -0.43387			 0.13178
	120.00			  9.77118			  -0.02038			 0.07985
	120.25			  10.01932			  -0.21106			 0.20947
	120.50			  10.01707			  -0.14314			 0.27152
	120.75			  10.31825			  -0.01015			 0.36721
	121.00			  10.43489			  -0.12881			 0.20673
	121.25			  10.28267			  0.06739			 0.04710
	121.50			  10.20937			  0.00172			 -0.01024
	121.75			  10.36114			  0.10279			 0.04594
	122.00			  10.64701			  0.15148			 0.04688
	122.25			  10.54624			  0.00888			 -0.27001
	122.50			  10.39683			  0.03609			 -0.29111
	122.75			  10.18978			  -0.19265			 -0.34644
	123.00			  10.33424			  -0.17362			 -0.31181
	123.25			  10.45504			  -0.07214			 0.02873
	123.50			  10.66581			  -0.01751			 0.05933
	123.75			  10.50886			  -0.13741			 0.11708
	124.00			  10.49850			  -0.24564			 0.38258
	124.25			  10.58835			  -0.29249			 0.25498
	124.50			  10.38693			  -0.18037			 0.06740
	124.75			  10.38558			  -0.12615			 0.16112
	125.00			  10.50942			  0.05675			 0.41587
	125.25			  10.56977			  -0.22682			 0.32219
	125.50			  10.54590			  -0.37944			 0.17022
	125.75			  10.79484			  -0.26016			 -0.01992
	126.00			  10.76579			  0.10893			 0.22022
	126.25			  10.62201			  -0.27919			 0.52035
	126.50			  10.39256			  -0.20431			 0.53486
	126.75			  10.64948			  -0.64399			 0.46448
	127.00			  10.55525			  -0.77615			 0.57953
	127.25			  10.76849			  -0.92019			 0.44302
	127.50			  10.58666			  -0.84695			 0.28231
	127.75			  10.52451			  -0.88971			 -0.00469
	128.00			  10.58418			  -0.61882			 -0.09277
	128.25			  10.38839			  -0.48522			 -0.06087
	128.50			  10.23662			  -0.40338			 -0.21530
	128.75			  10.35394			  -0.23439			 -0.13909
	129.00			  10.53419			  -0.09935			 -0.12296
	129.25			  10.30969			  0.00458			 0.01189
	129.50			  10.32230			  -0.12186			 0.11507
	129.75			  10.30507			  -0.14150			 0.19965
	130.00			  10.52102			  -0.14436			 0.07139
	130.25			  10.42408			  -0.06580			 -0.10536
	130.50			  10.49321			  -0.24052			 -0.13461
	130.75			  10.38310			  -0.30702			 -0.01696
	131.00			  10.49614			  -0.59509			 -0.22449
	131.25			  10.63293			  -0.61452			 0.02161
	131.50			  10.43005			  -0.55376			 -0.08332
	131.75			  10.32027			  -0.52818			 0.05235
	132.00			  10.49535			  -0.45003			 -0.08681
	132.25			  10.55266			  -0.36021			 -0.00321
	132.50			  10.28143			  -0.38865			 0.14159
	132.75			  10.62134			  -0.39479			 -0.20002
	133.00			  10.54388			  -0.53719			 -0.42726
	133.25			  10.44491			  -0.37719			 -0.39814
	133.50			  10.44953			  -0.34466			 -0.49657
	133.75			  10.49648			  -0.21843			 -0.48783
	134.00			  10.24608			  -0.02488			 -0.53832
	134.25			  10.37330			  -0.27694			 -0.48268
	134.50			  10.66885			  -0.51489			 -0.47941
	134.75			  11.03972			  -0.44144			 -0.57457
	135.00			  11.09635			  -0.07644			 -0.43443
	135.25			  10.80553			  0.09706			 -0.59128
	135.50			  10.95606			  0.06228			 -0.61498
	135.75			  10.76106			  -0.01035			 -0.18439
	136.00			  10.61650			  -0.05577			 -0.29707
	136.25			  10.40325			  -0.30149			 -0.19680
	136.50			  10.47249			  -0.36696			 -0.08735
	136.75			  10.57484			  -0.34098			 -0.09340
	137.00			  10.60208			  -0.34078			 -0.31037
	137.25			  10.40798			  -0.43162			 -0.19586
	137.50			  10.28256			  -0.27858			 -0.25482
	137.75			  10.65962			  -0.12615			 -0.17892
	138.00			  10.81758			  -0.38394			 -0.15424
	138.25			  10.70702			  0.04878			 -0.14075
	138.50			  10.66513			  -0.19633			 -0.30007
	138.75			  10.63811			  -0.08032			 -0.23542
	139.00			  10.82861			  0.02872			 -0.02561
	139.25			  10.97273			  0.16499			 0.12775
	139.50			  10.97509			  0.34503			 0.30525
	139.75			  11.17122			  0.07660			 0.27846
	140.00			  11.14859			  0.17399			 0.26937
	140.25			  10.96834			  -0.14354			 0.11897
	140.50			  10.90484			  -0.09035			 0.02761
	140.75			  11.08002			  0.05921			 0.11225
	141.00			  11.13418			  0.23025			 0.20467
	141.25			  11.14589			  0.36426			 0.04370
	141.50			  11.10299			  0.29552			 -0.01643
	141.75			  10.84190			  0.35260			 0.12573
	142.00			  10.65444			  0.55229			 0.25297
	142.25			  10.80553			  0.26606			 0.01364
	142.50			  10.66536			  0.08131			 -0.09765
	142.75			  10.65320			  0.28017			 -0.01970
	143.00			  10.47475			  0.61530			 -0.36736
	143.25			  10.56189			  0.62001			 -0.35437
	143.50			  10.35540			  0.51873			 -0.28882
	143.75			  10.38760			  0.70307			 -0.23717
	144.00			  10.28515			  0.81765			 -0.13990
	144.25			  10.05614			  0.68118			 -0.26387
	144.50			  9.97102			  0.52589			 -0.41046
	144.75			  10.05490			  0.27444			 -0.27220
	145.00			  9.99061			  0.39863			 -0.51180
	145.25			  10.32872			  0.43137			 -0.23210
	145.50			  10.46202			  0.28283			 -0.01074
	145.75			  10.33412			  0.28161			 0.06166
	146.00			  10.28042			  0.03752			 0.08084
	146.25			  10.27862			  -0.09485			 0.25015
	146.50			  10.54207			  0.25460			 0.16780
	146.75			  10.58182			  0.29061			 0.06556
	147.00			  10.81015			  0.05409			 0.23738
	147.25			  10.75070			  0.12693			 0.11090
	147.50			  10.89504			  -0.14723			 0.04374
	147.75			  10.58261			  -0.15848			 0.18017
	148.00			  10.37567			  -0.01383			 0.29275
	148.25			  10.37297			  0.21388			 0.35243
	148.50			  10.47824			  -0.11633			 0.22537
	148.75			  10.50346			  -0.12615			 0.30167
	149.00			  10.32647			  -0.09240			 0.18917
	149.25			  10.27231			  -0.17485			 0.22206
	149.50			  9.94006			  0.21757			 -0.05361
	149.75			  10.12955			  -0.04841			 0.02322
	150.00			  10.34324			  -0.03163			 -0.07462
	150.25			  10.57292			  0.05941			 0.11919
	150.50			  10.41564			  0.15598			 0.40588
	150.75			  10.39571			  -0.00340			 0.09110
	151.00			  10.21737			  -0.37085			 -0.03242
	151.25			  10.25565			  -0.36614			 -0.18878
	151.50			  10.31937			  -0.11490			 0.12887
	151.75			  10.47340			  0.07149			 0.22716
	152.00			  10.51044			  -0.06478			 0.30888
	152.25			  10.37736			  0.03364			 -0.03305
	152.50			  10.10174			  -0.21904			 -0.16194
	152.75			  10.43692			  -0.16073			 -0.25836
	153.00			  10.48454			  0.03589			 -0.22225
	153.25			  10.52305			  0.08458			 -0.45629
	153.50			  10.55986			  0.06596			 -0.24442
	153.75			  10.65343			  0.40191			 -0.47184
	154.00			  10.54928			  0.34871			 -0.59590
	154.25			  10.73235			  0.69080			 -0.45728
	154.50			  10.71749			  0.57479			 -0.03309
	154.75			  10.74710			  0.39209			 -0.02583
	155.00			  10.83953			  0.24273			 0.04858
	155.25			  10.79180			  0.01277			 0.04903
	155.50			  11.05548			  -0.10938			 -0.01047
	155.75			  11.20759			  -0.24605			 0.02345
	156.00			  11.29012			  -0.32543			 -0.06302
	156.25			  11.19183			  -0.08585			 -0.20939
	156.50			  11.14510			  -0.01240			 -0.14478
	156.75			  11.34191			  -0.31581			 0.05629
	157.00			  11.46238			  -0.27755			 0.17026
	157.25			  11.04839			  -0.42445			 0.29741
	157.50			  11.12089			  -0.23541			 0.40077
	157.75			  11.22245			  -0.08012			 0.31650
	158.00			  11.05424			  -0.24175			 0.20714
	158.25			  10.67752			  -0.18180			 0.12251
	158.50			  10.78414			  -0.41320			 0.05714
	158.75			  11.02970			  -0.33423			 0.09822
	159.00			  11.16751			  -0.43100			 0.19983
	159.25			  11.01911			  -0.50302			 0.26045
	159.50			  10.86160			  -0.64767			 0.04867
	159.75			  11.09635			  -0.64951			 -0.02664
	160.00			  11.24992			  -0.52716			 0.12483
	160.25			  11.28651			  -0.29392			 0.04110
	160.50			  11.17618			  -0.16216			 -0.08358
	160.75			  11.41926			  0.03916			 -0.05832
	161.00			  11.35598			  0.08949			 -0.04192
	161.25			  11.16841			  0.20897			 -0.08237
	161.50			  10.96991			  0.17358			 0.11086
	161.75			  10.76084			  -0.11961			 -0.07615
	162.00			  10.84010			  -0.21577			 -0.20571
	162.25			  11.13812			  -0.24768			 -0.17727
	162.50			  11.17437			  -0.28881			 0.00454
	162.75			  11.05739			  -0.22968			 0.14661
	163.00			  11.12022			  -0.32195			 -0.07480
	163.25			  11.29451			  -0.41463			 -0.15670
	163.50			  11.55200			  -0.49852			 -0.03815
	163.75			  11.67753			  -0.42977			 -0.11656
	164.00			  11.56754			  -0.47090			 -0.14787
	164.25			  11.70050			  -0.31561			 -0.27117
	164.50			  11.75331			  -0.35223			 -0.55387
	164.75			  11.47352			  -0.33525			 -0.60495
	165.00			  11.56618			  -0.07357			 -0.29572
	165.25			  11.70354			  -0.23827			 -0.22193