--------------TurbSim v2.00.* User Time Series Input File-----------------------
     Time series input from low-res turbsim run
--------------------------------------------------------------------------------
          3 nComp - Number of velocity components in the file
          1 nPoints - Number of time series points contained in this file (-)
          1 RefPtID - Index of the reference point (1-nPoints)
     Pointyi Pointzi ! nPoints listed in order of increasing height
       (m)     (m)
       -3.86487   94.00000
--------Time Series-------------------------------------------------------------
Elapsed Time         Point01u             Point01v           Point01w
         (s)            (m/s)                (m/s)              (m/s)
	0.00			  10.10202			  -0.02891			 -0.20835
	0.25			  10.11906			  -0.14025			 -0.27169
	0.50			  10.16022			  -0.24498			 -0.32853
	0.75			  10.19936			  -0.17754			 -0.04949
	1.00			  10.23040			  -0.14130			 0.00801
	1.25			  10.19780			  -0.09216			 0.02893
	1.50			  10.18317			  0.05717			 0.18451
	1.75			  10.10233			  -0.06358			 0.00871
	2.00			  10.09751			  -0.04807			 -0.07837
	2.25			  10.15804			  -0.15227			 0.08219
	2.50			  10.08817			  -0.18068			 0.00023
	2.75			  10.05144			  -0.18556			 0.03668
	3.00			  10.00219			  -0.22581			 0.12586
	3.25			  10.11066			  -0.11394			 0.11670
	3.50			  10.06856			  -0.09983			 0.22797
	3.75			  10.15158			  -0.14112			 0.19301
	4.00			  10.12661			  -0.11586			 0.30322
	4.25			  10.04942			  -0.01148			 0.39207
	4.50			  10.07517			  0.12774			 0.28652
	4.75			  10.05860			  0.15528			 0.23503
	5.00			  10.04078			  0.08017			 0.21411
	5.25			  9.95978			  -0.06846			 0.10569
	5.50			  9.98414			  -0.15907			 0.12857
	5.75			  9.84649			  -0.09756			 0.30248
	6.00			  9.83544			  -0.05522			 0.11849
	6.25			  9.76028			  -0.04302			 0.06769
	6.50			  9.53346			  -0.08379			 0.18530
	6.75			  9.54848			  -0.12666			 0.18970
	7.00			  9.68838			  -0.09895			 0.25465
	7.25			  9.66084			  0.08348			 0.26034
	7.50			  9.46772			  -0.02838			 0.14881
	7.75			  9.55323			  0.08801			 -0.03697
	8.00			  9.53401			  0.06083			 0.01349
	8.25			  9.56342			  -0.03135			 -0.07485
	8.50			  9.68620			  0.07669			 -0.06612
	8.75			  9.67399			  0.16922			 0.08291
	9.00			  9.59859			  0.05526			 0.02558
	9.25			  9.40407			  -0.01183			 0.05862
	9.50			  9.34096			  0.04079			 0.13232
	9.75			  9.38477			  0.11014			 0.02361
	10.00			  9.49596			  0.23543			 0.07925
	10.25			  9.62785			  0.35775			 0.12971
	10.50			  9.59789			  0.28701			 0.01909
	10.75			  9.57618			  0.18211			 -0.00216
	11.00			  9.58497			  0.18194			 0.05711
	11.25			  9.60629			  0.15440			 -0.00958
	11.50			  9.63586			  0.12339			 0.03292
	11.75			  9.65500			  0.15092			 -0.20010
	12.00			  9.76759			  0.09289			 -0.28816
	12.25			  9.73663			  0.00769			 -0.24260
	12.50			  9.64652			  -0.05470			 -0.11197
	12.75			  9.74690			  -0.08867			 0.01794
	13.00			  9.65508			  -0.07682			 -0.12886
	13.25			  9.59556			  0.06623			 -0.11611
	13.50			  9.69850			  0.00873			 -0.12714
	13.75			  9.78744			  0.00281			 -0.22575
	14.00			  9.73818			  -0.07107			 -0.18488
	14.25			  9.77709			  -0.05679			 -0.10170
	14.50			  9.71391			  0.05282			 -0.16691
	14.75			  9.78137			  -0.03657			 -0.07607
	15.00			  9.86205			  -0.01200			 -0.13662
	15.25			  9.80759			  0.03121			 -0.12678
	15.50			  9.77335			  -0.01044			 -0.00529
	15.75			  9.81163			  -0.10279			 0.06302
	16.00			  9.82486			  -0.11272			 -0.01558
	16.25			  9.84657			  -0.00259			 -0.08658
	16.50			  9.96103			  0.16887			 -0.12666
	16.75			  9.91605			  0.03783			 -0.08507
	17.00			  9.89193			  -0.01148			 -0.01829
	17.25			  9.77654			  -0.13311			 -0.17275
	17.50			  9.73141			  -0.03501			 -0.13343
	17.75			  9.80673			  -0.09704			 -0.11738
	18.00			  9.81770			  -0.05574			 -0.15786
	18.25			  9.75429			  -0.00747			 -0.15009
	18.50			  9.87513			  -0.15280			 -0.14626
	18.75			  9.94368			  -0.06759			 -0.11352
	19.00			  9.89030			  0.07634			 0.01153
	19.25			  9.84867			  0.01971			 -0.04688
	19.50			  9.69912			  0.07547			 0.00481
	19.75			  9.81833			  -0.00207			 -0.04444
	20.00			  9.93566			  0.05195			 0.05955
	20.25			  9.90703			  -0.00469			 -0.09261
	20.50			  9.88275			  -0.03135			 -0.17887
	20.75			  9.92609			  0.08000			 -0.17277
	21.00			  9.92827			  0.28701			 -0.16059
	21.25			  10.10731			  0.17427			 -0.12680
	21.50			  10.15477			  0.12583			 -0.04956
	21.75			  10.09883			  0.16869			 -0.02133
	22.00			  10.08482			  0.29955			 -0.10142
	22.25			  9.97955			  0.33388			 -0.07196
	22.50			  9.99153			  0.23351			 -0.05167
	22.75			  10.03697			  0.18228			 -0.00273
	23.00			  10.03005			  0.20232			 -0.07203
	23.25			  10.07626			  0.18612			 -0.07658
	23.50			  10.07471			  0.08436			 -0.09223
	23.75			  9.97488			  0.05892			 -0.09232
	24.00			  9.94360			  -0.03204			 -0.02054
	24.25			  9.90796			  -0.08606			 -0.01405
	24.50			  9.94578			  -0.02141			 0.03632
	24.75			  9.97558			  -0.10383			 0.02644
	25.00			  9.97854			  0.01500			 0.11349
	25.25			  10.06086			  0.10143			 0.17513
	25.50			  9.97519			  0.18525			 0.02665
	25.75			  9.90353			  0.24048			 0.03709
	26.00			  9.98118			  0.19657			 -0.00675
	26.25			  9.95107			  0.11764			 0.09217
	26.50			  10.00826			  0.13437			 0.12584
	26.75			  9.83451			  0.09115			 0.01375
	27.00			  9.91100			  0.11799			 0.17169
	27.25			  9.75390			  0.10178			 0.16226
	27.50			  9.61306			  0.04201			 0.04486
	27.75			  9.69282			  -0.07979			 0.07697
	28.00			  9.67803			  0.04201			 -0.09845
	28.25			  9.70838			  0.01640			 -0.02776
	28.50			  9.77537			  -0.08519			 -0.01836
	28.75			  9.89621			  -0.02943			 0.09686
	29.00			  9.71484			  0.02476			 -0.00726
	29.25			  9.53907			  -0.01200			 0.04503
	29.50			  9.60497			  -0.11795			 0.03263
	29.75			  9.76036			  0.10945			 0.03041
	30.00			  9.73009			  0.06223			 -0.09606
	30.25			  9.57929			  -0.06062			 0.10555
	30.50			  9.62839			  -0.10993			 0.11797
	30.75			  9.80370			  -0.04703			 0.14824
	31.00			  9.75670			  -0.11882			 0.19016
	31.25			  9.85816			  -0.22285			 0.20533
	31.50			  9.72612			  -0.21100			 0.17867
	31.75			  9.63532			  -0.16796			 0.23168
	32.00			  9.69733			  -0.04773			 0.19911
	32.25			  9.83490			  -0.00137			 0.18748
	32.50			  9.90485			  -0.12596			 -0.00948
	32.75			  9.91652			  -0.19706			 0.00914
	33.00			  9.86914			  -0.10401			 0.08334
	33.25			  9.98904			  -0.03971			 0.04819
	33.50			  9.99923			  -0.04738			 -0.00536
	33.75			  10.07642			  0.02703			 -0.06744
	34.00			  10.06273			  -0.06376			 -0.07971
	34.25			  10.00273			  -0.07735			 -0.07347
	34.50			  9.98888			  -0.02856			 -0.12707
	34.75			  9.93177			  -0.03448			 -0.11637
	35.00			  9.82844			  0.11049			 -0.06964
	35.25			  9.81179			  0.21469			 -0.10491
	35.50			  9.88703			  0.20807			 -0.16394
	35.75			  9.86991			  0.25320			 -0.07323
	36.00			  9.90376			  0.17758			 -0.08120
	36.25			  9.96515			  0.04341			 0.06908
	36.50			  9.98320			  0.09986			 0.22691
	36.75			  9.89435			  0.02598			 0.15388
	37.00			  9.97348			  -0.19357			 0.17149
	37.25			  9.94375			  -0.24114			 0.14319
	37.50			  9.95854			  -0.16116			 0.16831
	37.75			  10.01277			  -0.15785			 0.21318
	38.00			  9.99106			  -0.12352			 0.21612
	38.25			  10.01736			  -0.07073			 0.26312
	38.50			  9.88236			  0.04759			 0.22610
	38.75			  9.79747			  0.08436			 0.19360
	39.00			  9.79413			  -0.03169			 0.10531
	39.25			  9.79226			  -0.08031			 0.41983
	39.50			  9.92578			  -0.12230			 0.22541
	39.75			  9.88509			  -0.17336			 0.04072
	40.00			  9.75507			  -0.28993			 0.07922
	40.25			  9.65594			  -0.39831			 0.09023
	40.50			  9.78798			  -0.43090			 -0.00369
	40.75			  9.85015			  -0.27634			 -0.01183
	41.00			  9.86579			  -0.29760			 -0.11742
	41.25			  9.82074			  -0.32896			 -0.04296
	41.50			  9.80525			  -0.25717			 0.02857
	41.75			  9.76145			  -0.28558			 0.01308
	42.00			  9.82058			  -0.29063			 0.02847
	42.25			  9.82509			  -0.24166			 -0.05363
	42.50			  10.05136			  -0.28871			 -0.03803
	42.75			  10.01114			  -0.14287			 -0.11151
	43.00			  10.00787			  -0.17859			 -0.11797
	43.25			  9.98896			  -0.04895			 -0.21462
	43.50			  9.95371			  0.03487			 -0.31474
	43.75			  9.96718			  -0.03553			 -0.18809
	44.00			  10.03775			  -0.15001			 -0.16069
	44.25			  10.16932			  -0.05260			 -0.17342
	44.50			  10.19321			  -0.10087			 -0.07177
	44.75			  10.05860			  -0.14043			 0.00253
	45.00			  10.15438			  -0.02769			 0.05934
	45.25			  10.17306			  -0.01340			 0.07992
	45.50			  10.08895			  -0.05173			 -0.03444
	45.75			  10.08786			  -0.08798			 -0.01350
	46.00			  10.15765			  -0.14757			 -0.07995
	46.25			  10.18543			  -0.07752			 -0.15085
	46.50			  10.25989			  -0.00834			 -0.15751
	46.75			  10.35295			  0.06467			 -0.07294
	47.00			  10.35000			  -0.02525			 -0.11982
	47.25			  10.31063			  -0.07543			 -0.13035
	47.50			  10.17321			  -0.11743			 -0.14533
	47.75			  10.22823			  -0.15245			 -0.21321
	48.00			  10.23717			  0.08680			 -0.27177
	48.25			  10.26472			  0.12408			 -0.25966
	48.50			  10.33078			  0.04672			 -0.24942
	48.75			  10.30082			  0.16468			 -0.08297
	49.00			  10.17983			  0.19971			 -0.03506
	49.25			  10.15228			  0.29555			 -0.05416
	49.50			  10.24044			  0.21051			 -0.17524
	49.75			  10.33716			  0.04567			 -0.05664
	50.00			  10.35646			  -0.04319			 -0.14762
	50.25			  10.42298			  -0.12039			 -0.19182
	50.50			  10.43170			  -0.08484			 -0.12922
	50.75			  10.39614			  -0.12178			 -0.03413
	51.00			  10.32720			  0.01448			 -0.14518
	51.25			  10.28324			  -0.04407			 -0.11491
	51.50			  10.34930			  -0.12178			 -0.09273
	51.75			  10.26441			  -0.26937			 -0.11651
	52.00			  10.27802			  -0.26397			 -0.17332
	52.25			  10.30479			  -0.21135			 -0.16930
	52.50			  10.37038			  -0.27129			 -0.07514
	52.75			  10.28472			  -0.27547			 -0.04631
	53.00			  10.29678			  -0.24132			 -0.16368
	53.25			  10.27997			  -0.39309			 -0.11465
	53.50			  10.45636			  -0.27146			 -0.11132
	53.75			  10.47294			  -0.10174			 -0.12128
	54.00			  10.43784			  -0.18137			 -0.07378
	54.25			  10.36144			  -0.15541			 -0.07706
	54.50			  10.32595			  -0.21500			 0.05056
	54.75			  10.36774			  -0.09721			 -0.01587
	55.00			  10.33903			  -0.16674			 -0.11297
	55.25			  10.26340			  -0.23069			 -0.16212
	55.50			  10.24106			  -0.11342			 -0.05818
	55.75			  10.18660			  -0.06167			 0.00567
	56.00			  10.16574			  -0.12039			 -0.01735
	56.25			  10.19897			  0.01047			 0.04824
	56.50			  10.24807			  0.05055			 0.07846
	56.75			  10.23803			  0.04306			 0.18530
	57.00			  10.27686			  -0.05016			 0.16295
	57.25			  10.24394			  0.11311			 0.11921
	57.50			  10.15960			  0.11589			 0.17221
	57.75			  10.11315			  0.12443			 0.17860
	58.00			  10.10996			  0.19396			 0.01684
	58.25			  9.98935			  0.23891			 -0.01946
	58.50			  9.95177			  0.13123			 0.04560
	58.75			  9.99363			  0.25007			 0.13924
	59.00			  9.91006			  0.14987			 0.14484
	59.25			  9.97675			  0.16468			 0.23893
	59.50			  10.07658			  0.00438			 0.26999
	59.75			  10.05930			  -0.06393			 0.12699
	60.00			  9.93014			  -0.12265			 0.06233
	60.25			  9.87248			  -0.14025			 -0.04387
	60.50			  9.81529			  -0.01531			 -0.03054
	60.75			  9.82673			  -0.06951			 -0.11582
	61.00			  9.79210			  -0.14426			 -0.12922
	61.25			  9.73048			  -0.07107			 -0.12597
	61.50			  9.75180			  0.02075			 -0.03872
	61.75			  9.81047			  0.00734			 -0.11934
	62.00			  9.82377			  -0.05766			 -0.04904
	62.25			  9.72083			  -0.01985			 0.02967
	62.50			  9.84229			  -0.04790			 -0.01259
	62.75			  9.96741			  -0.16325			 0.00447
	63.00			  9.95332			  -0.30544			 0.15460
	63.25			  10.01168			  -0.34883			 0.10586
	63.50			  10.03557			  -0.25334			 -0.03642
	63.75			  10.09354			  -0.24341			 -0.10864
	64.00			  10.10653			  -0.01653			 -0.00735
	64.25			  10.18683			  0.14395			 0.10315
	64.50			  10.20963			  0.12827			 0.14881
	64.75			  10.27118			  0.12269			 0.29973
	65.00			  10.13244			  0.18054			 0.22452
	65.25			  10.17314			  0.30792			 0.12921
	65.50			  10.13812			  0.15144			 0.20143
	65.75			  10.23733			  0.22376			 0.28726
	66.00			  10.29405			  0.05839			 0.19301
	66.25			  10.29351			  0.02877			 0.18580
	66.50			  10.31607			  0.08000			 0.14788
	66.75			  10.21951			  -0.05557			 0.14919
	67.00			  10.31382			  -0.02821			 0.20748
	67.25			  10.33179			  -0.19880			 0.20657
	67.50			  10.30619			  -0.23487			 0.16570
	67.75			  10.31218			  -0.31729			 0.18121
	68.00			  10.29296			  -0.12805			 0.02165
	68.25			  10.24371			  -0.05435			 -0.15798
	68.50			  10.36486			  -0.08902			 -0.12599
	68.75			  10.52001			  0.02738			 -0.03719
	69.00			  10.45193			  -0.04598			 0.13388
	69.25			  10.41014			  -0.13311			 0.06546
	69.50			  10.31623			  -0.04006			 0.21672
	69.75			  10.24667			  0.11119			 0.20851
	70.00			  10.26557			  0.05874			 0.15513
	70.25			  10.20270			  -0.03047			 -0.08488
	70.50			  10.28581			  -0.09181			 0.10557
	70.75			  10.31382			  -0.08467			 0.04075
	71.00			  10.33327			  0.05822			 0.09071
	71.25			  10.37568			  0.02511			 0.20839
	71.50			  10.36486			  0.06885			 0.16259
	71.75			  10.36587			  0.01431			 0.18267
	72.00			  10.41053			  -0.03866			 0.17425
	72.25			  10.47589			  0.19518			 0.24955
	72.50			  10.37894			  0.00664			 0.13036
	72.75			  10.36097			  0.01535			 0.06322
	73.00			  10.20115			  0.18333			 0.00686
	73.25			  10.07517			  0.26209			 -0.01525
	73.50			  10.11719			  0.12008			 0.00691
	73.75			  10.15096			  -0.00434			 0.03141
	74.00			  10.12793			  -0.11377			 -0.02197
	74.25			  10.17967			  -0.10349			 0.03866
	74.50			  10.29561			  -0.07473			 -0.06279
	74.75			  10.34113			  -0.00817			 0.11186
	75.00			  10.39591			  -0.00225			 0.07085
	75.25			  10.34214			  -0.08885			 0.14850
	75.50			  10.28184			  -0.05783			 0.24835
	75.75			  10.33179			  -0.00120			 0.14366
	76.00			  10.26059			  0.17043			 0.17965
	76.25			  10.19749			  0.08784			 0.25103
	76.50			  10.12653			  0.05822			 0.20387
	76.75			  10.14878			  0.02616			 0.22579
	77.00			  10.15765			  0.03609			 0.19538
	77.25			  10.13820			  0.12234			 0.27494
	77.50			  10.14754			  0.10910			 0.28934
	77.75			  10.12816			  0.15789			 0.30437
	78.00			  10.02117			  -0.04250			 0.24584
	78.25			  10.02499			  0.08575			 0.25714
	78.50			  10.10622			  0.24153			 0.30337
	78.75			  9.91465			  0.08923			 0.26015
	79.00			  9.86470			  0.13175			 0.10397
	79.25			  9.69897			  0.14064			 0.09856
	79.50			  9.69500			  0.01169			 0.01919
	79.75			  9.87598			  -0.07142			 -0.07761
	80.00			  9.97278			  -0.11725			 -0.06681
	80.25			  10.05168			  0.01187			 -0.13745
	80.50			  9.95971			  -0.00434			 -0.10553
	80.75			  9.95722			  0.00019			 -0.14571
	81.00			  10.10147			  0.03104			 -0.10713
	81.25			  9.96655			  0.01187			 -0.02917
	81.50			  9.89139			  -0.13119			 -0.03707
	81.75			  9.96391			  -0.11708			 -0.00706
	82.00			  9.98678			  -0.02194			 -0.15243
	82.25			  9.98904			  0.01431			 -0.21355
	82.50			  10.03946			  -0.02978			 -0.17067
	82.75			  10.02507			  -0.18225			 -0.14899
	83.00			  9.89170			  0.02511			 -0.17280
	83.25			  9.91745			  0.03661			 -0.17170
	83.50			  9.91668			  0.10771			 -0.11187
	83.75			  9.86120			  0.05421			 0.00892
	84.00			  9.83039			  0.15196			 -0.08543
	84.25			  9.80907			  0.11555			 -0.03975
	84.50			  9.76814			  0.01082			 0.06958
	84.75			  9.98881			  0.01640			 -0.03937
	85.00			  10.04950			  0.08401			 -0.01372
	85.25			  10.09175			  0.05107			 -0.04712
	85.50			  10.15687			  0.05700			 -0.05667
	85.75			  10.24060			  0.25198			 -0.02255
	86.00			  10.27725			  0.24484			 -0.03571
	86.25			  10.23352			  0.04132			 0.09889
	86.50			  10.07580			  0.01797			 0.05967
	86.75			  9.98359			  0.01971			 -0.00486
	87.00			  9.98390			  0.18559			 -0.03965
	87.25			  10.06117			  0.21435			 -0.04037
	87.50			  9.98818			  0.16608			 -0.02350
	87.75			  9.98686			  0.12199			 0.01541
	88.00			  10.13244			  0.16887			 -0.04303
	88.25			  10.10163			  -0.02664			 -0.04992
	88.50			  9.98639			  -0.09024			 0.03194
	88.75			  9.95434			  -0.02978			 -0.00326
	89.00			  9.88968			  -0.03814			 0.02469
	89.25			  9.97729			  -0.05191			 -0.13922
	89.50			  10.06265			  0.05456			 -0.12187
	89.75			  10.08272			  0.11694			 0.05116
	90.00			  9.99332			  -0.03919			 0.06381
	90.25			  10.05697			  -0.09303			 0.00571
	90.50			  10.04942			  0.03382			 -0.04944
	90.75			  10.11750			  -0.00381			 0.00150
	91.00			  10.10474			  -0.14356			 -0.16679
	91.25			  10.07463			  -0.15646			 -0.04693
	91.50			  10.17423			  -0.18015			 -0.04616
	91.75			  10.20286			  -0.11028			 -0.07765
	92.00			  10.30308			  -0.04302			 0.10559
	92.25			  10.32953			  -0.07944			 0.24608
	92.50			  10.42283			  -0.09686			 0.24017
	92.75			  10.30845			  -0.20577			 0.26611
	93.00			  10.34144			  -0.20769			 0.22356
	93.25			  10.29195			  -0.29917			 0.14020
	93.50			  10.32362			  -0.23191			 0.07262
	93.75			  10.42392			  -0.02943			 0.16305
	94.00			  10.43683			  0.00786			 0.15455
	94.25			  10.49052			  0.04863			 0.13579
	94.50			  10.55713			  0.08836			 0.19906
	94.75			  10.42143			  0.07948			 0.20952
	95.00			  10.46827			  -0.08223			 0.10203
	95.25			  10.46803			  -0.04720			 -0.03389
	95.50			  10.39528			  -0.15088			 0.01380
	95.75			  10.48640			  -0.01688			 -0.01580
	96.00			  10.48360			  0.04341			 -0.10828
	96.25			  10.56242			  0.09133			 -0.19527
	96.50			  10.43909			  0.12565			 -0.09768
	96.75			  10.39653			  0.04463			 -0.07399
	97.00			  10.32417			  0.04567			 -0.08268
	97.25			  10.29390			  0.03069			 -0.03965
	97.50			  10.22146			  0.17566			 0.08281
	97.75			  10.20589			  0.17113			 0.02347
	98.00			  10.21243			  0.25895			 0.07104
	98.25			  10.28153			  0.33737			 0.10217
	98.50			  10.26768			  0.36089			 0.11808
	98.75			  10.23803			  0.27185			 0.24823
	99.00			  10.17469			  0.32377			 0.11086
	99.25			  10.07829			  0.28457			 -0.02463
	99.50			  10.07292			  0.37901			 0.11131
	99.75			  10.08949			  0.46283			 -0.00465
	100.00			  10.09369			  0.41421			 0.07027
	100.25			  10.16473			  0.42519			 0.04831
	100.50			  10.26098			  0.42780			 0.01801
	100.75			  10.37536			  0.43843			 0.07994
	101.00			  10.44555			  0.45289			 0.18963
	101.25			  10.45294			  0.36002			 0.22172
	101.50			  10.35809			  0.24432			 0.33400
	101.75			  10.36105			  0.31924			 0.26039
	102.00			  10.33864			  0.29746			 0.27116
	102.25			  10.24332			  0.29485			 0.18463
	102.50			  10.20963			  0.21644			 0.06216
	102.75			  10.17586			  0.11816			 0.13886
	103.00			  10.17851			  0.08244			 0.23538
	103.25			  10.23002			  0.13245			 0.14584
	103.50			  10.32105			  0.16190			 -0.04741
	103.75			  10.30728			  0.28980			 0.00370
	104.00			  10.24044			  0.31367			 0.21308
	104.25			  10.25951			  0.29380			 0.13405
	104.50			  10.30168			  0.22863			 -0.04994
	104.75			  10.21476			  0.27533			 -0.01896
	105.00			  10.22410			  0.17009			 -0.02377
	105.25			  10.17220			  0.15528			 0.10339
	105.50			  10.27328			  0.16991			 0.06874
	105.75			  10.23142			  0.16068			 0.03668
	106.00			  10.24674			  0.18333			 0.08320
	106.25			  10.25686			  0.04410			 0.03840
	106.50			  10.18792			  0.02494			 0.04876
	106.75			  10.26659			  0.12286			 0.02658
	107.00			  10.28752			  0.07495			 -0.10311
	107.25			  10.34370			  0.05613			 -0.27861
	107.50			  10.37879			  -0.03640			 -0.13669
	107.75			  10.30658			  -0.09059			 -0.01967
	108.00			  10.23305			  -0.10227			 -0.17631
	108.25			  10.26861			  -0.14513			 -0.13776
	108.50			  10.26215			  -0.19932			 -0.15255
	108.75			  10.26355			  -0.24341			 -0.06476
	109.00			  10.19897			  -0.18556			 -0.07902
	109.25			  10.18924			  -0.23644			 -0.02850
	109.50			  10.25328			  -0.39744			 -0.06918
	109.75			  10.23982			  -0.38438			 -0.04389
	110.00			  10.19166			  -0.24428			 0.00327
	110.25			  10.04607			  -0.29150			 0.18236
	110.50			  10.12163			  -0.32635			 0.16831
	110.75			  10.09642			  -0.28592			 0.10433
	111.00			  10.14544			  -0.21901			 0.10066
	111.25			  10.26806			  -0.27076			 0.11464
	111.50			  10.25896			  -0.26902			 0.07396
	111.75			  10.20504			  -0.21135			 0.09382
	112.00			  10.24783			  -0.15733			 0.21737
	112.25			  10.15158			  -0.08867			 0.12818
	112.50			  10.16629			  -0.07317			 0.04347
	112.75			  10.09035			  -0.03692			 0.02251
	113.00			  10.07479			  -0.18225			 0.00689
	113.25			  10.25344			  -0.18381			 0.11806
	113.50			  10.10902			  -0.15071			 0.02782
	113.75			  10.07043			  -0.13346			 0.03586
	114.00			  10.05767			  -0.13328			 -0.11209
	114.25			  10.07105			  -0.05591			 -0.04676
	114.50			  10.15960			  -0.05348			 0.05683
	114.75			  10.16862			  -0.11725			 -0.00307
	115.00			  10.17500			  -0.10296			 0.07432
	115.25			  10.08404			  -0.14652			 -0.04265
	115.50			  10.04109			  -0.12056			 -0.09031
	115.75			  10.05144			  -0.31102			 -0.12872
	116.00			  10.11081			  -0.36329			 -0.10534
	116.25			  10.15049			  -0.16935			 -0.08713
	116.50			  10.15291			  0.00054			 -0.03523
	116.75			  10.10054			  -0.06184			 0.02845
	117.00			  10.07152			  -0.17005			 -0.03843
	117.25			  10.17734			  -0.18956			 -0.03913
	117.50			  10.21562			  -0.14234			 -0.01436
	117.75			  10.11058			  -0.13433			 -0.02300
	118.00			  10.12202			  -0.15071			 0.06348
	118.25			  10.05261			  -0.22441			 0.04754
	118.50			  10.10529			  -0.23417			 0.06563
	118.75			  10.28300			  -0.37287			 0.04256
	119.00			  10.36634			  -0.37096			 0.01849
	119.25			  10.33148			  -0.25926			 -0.05447
	119.50			  10.21313			  -0.21622			 -0.13173
	119.75			  10.23725			  -0.27930			 -0.15425
	120.00			  10.07191			  -0.30945			 -0.25346
	120.25			  10.08334			  -0.26170			 -0.29658
	120.50			  10.07681			  -0.20019			 -0.13989
	120.75			  10.11532			  -0.21692			 -0.20867
	121.00			  10.10855			  -0.14879			 -0.05289
	121.25			  10.11564			  -0.18050			 -0.02829
	121.50			  10.15960			  -0.17493			 0.00569
	121.75			  10.07292			  -0.08327			 0.03802
	122.00			  10.08179			  -0.12265			 0.12120
	122.25			  10.15555			  -0.15855			 0.06018
	122.50			  10.20200			  -0.16639			 -0.10204
	122.75			  10.29257			  -0.11864			 0.03438
	123.00			  10.25040			  0.01047			 -0.04899
	123.25			  10.26542			  -0.07160			 0.03931
	123.50			  10.29608			  -0.11289			 0.01182
	123.75			  10.22955			  -0.08467			 0.02084
	124.00			  10.31989			  -0.17876			 0.02309
	124.25			  10.34463			  -0.18747			 -0.00276
	124.50			  10.24877			  -0.10366			 -0.02401
	124.75			  10.13734			  -0.08310			 -0.22080
	125.00			  10.11237			  -0.11028			 -0.15581
	125.25			  10.15143			  -0.07770			 -0.09031
	125.50			  10.20597			  -0.10157			 -0.03260
	125.75			  10.30853			  0.01605			 -0.04889
	126.00			  10.19461			  -0.05679			 -0.06940
	126.25			  10.15197			  -0.08833			 -0.09814
	126.50			  10.20434			  -0.03204			 -0.08366
	126.75			  10.42150			  -0.13746			 -0.16090
	127.00			  10.40812			  0.01919			 -0.05772
	127.25			  10.41481			  -0.02560			 -0.14104
	127.50			  10.48181			  -0.09861			 -0.07806
	127.75			  10.67011			  -0.05644			 -0.08292
	128.00			  10.66715			  0.04863			 -0.04511
	128.25			  10.65719			  0.05700			 -0.13154
	128.50			  10.65221			  0.03086			 -0.02532
	128.75			  10.71298			  -0.01514			 0.07188
	129.00			  10.76223			  -0.06114			 0.02005
	129.25			  10.68792			  0.07181			 0.05778
	129.50			  10.77188			  -0.08589			 -0.13961
	129.75			  10.73764			  -0.06288			 -0.16342
	130.00			  10.75328			  0.15214			 -0.07380
	130.25			  10.81024			  0.08923			 -0.10728
	130.50			  10.74885			  -0.09965			 -0.21589
	130.75			  10.71648			  -0.14740			 -0.16756
	131.00			  10.64863			  -0.03553			 -0.28952
	131.25			  10.64186			  0.07704			 -0.18426
	131.50			  10.50297			  0.10927			 -0.14250
	131.75			  10.49208			  0.03104			 -0.11127
	132.00			  10.55347			  0.13158			 -0.27674
	132.25			  10.61813			  0.05055			 -0.16808
	132.50			  10.48344			  0.02041			 -0.07607
	132.75			  10.46523			  -0.01706			 -0.10089
	133.00			  10.41442			  -0.12126			 -0.10331
	133.25			  10.30215			  -0.17650			 -0.02561
	133.50			  10.30495			  -0.27059			 0.08253
	133.75			  10.25935			  -0.27512			 0.03055
	134.00			  10.25663			  -0.26292			 -0.01199
	134.25			  10.32012			  -0.18800			 -0.07782
	134.50			  10.25655			  -0.07926			 -0.07088
	134.75			  10.18395			  -0.02786			 -0.18332
	135.00			  10.15547			  -0.04598			 -0.03896
	135.25			  10.08832			  -0.09826			 -0.02609
	135.50			  10.10708			  -0.07508			 -0.11209
	135.75			  10.14264			  0.03330			 -0.18232
	136.00			  10.19951			  0.03766			 -0.11946
	136.25			  10.22115			  -0.09721			 0.00574
	136.50			  10.19461			  -0.06358			 0.02974
	136.75			  10.19329			  -0.05034			 0.04084
	137.00			  10.04125			  -0.06393			 -0.03831
	137.25			  10.03440			  -0.09564			 -0.12499
	137.50			  9.91660			  -0.03431			 -0.11510
	137.75			  9.83918			  -0.10592			 -0.15176
	138.00			  9.88337			  -0.05923			 -0.12118
	138.25			  9.72534			  -0.09076			 -0.15109
	138.50			  9.71149			  -0.00678			 -0.18294
	138.75			  9.70356			  -0.07473			 -0.06512
	139.00			  9.68784			  -0.05138			 -0.12034
	139.25			  9.73406			  -0.15140			 -0.07725
	139.50			  9.80813			  -0.00695			 -0.14372
	139.75			  9.78767			  -0.08467			 -0.26497
	140.00			  9.77514			  -0.06515			 -0.32427
	140.25			  9.92562			  -0.12004			 -0.15518
	140.50			  10.14544			  -0.15071			 -0.14245
	140.75			  10.21827			  -0.22023			 -0.30881
	141.00			  10.17391			  -0.30213			 -0.33104
	141.25			  10.17469			  -0.16186			 -0.38651
	141.50			  10.11571			  -0.17545			 -0.29280
	141.75			  10.27701			  -0.16831			 -0.28957
	142.00			  10.35288			  -0.07508			 -0.17722
	142.25			  10.38937			  -0.00991			 -0.06875
	142.50			  10.42275			  0.06954			 -0.07289
	142.75			  10.36937			  0.08070			 -0.13673
	143.00			  10.36914			  0.13715			 -0.21154
	143.25			  10.29047			  0.14813			 -0.23712
	143.50			  10.06607			  0.02407			 -0.08715
	143.75			  10.09976			  0.16015			 -0.08160
	144.00			  10.26612			  0.16643			 -0.04915
	144.25			  10.07409			  0.18455			 0.00638
	144.50			  10.03681			  0.22602			 0.02223
	144.75			  10.23453			  0.33214			 -0.04829
	145.00			  10.20947			  0.46108			 -0.03059
	145.25			  10.16940			  0.65589			 0.00447
	145.50			  10.16061			  0.51545			 -0.05495
	145.75			  10.20317			  0.47189			 -0.05633
	146.00			  10.18465			  0.50168			 -0.13767
	146.25			  10.14396			  0.46073			 -0.08883
	146.50			  10.09136			  0.44557			 -0.07605
	146.75			  10.06490			  0.47938			 -0.06461
	147.00			  10.01736			  0.42414			 -0.05358
	147.25			  10.11120			  0.31524			 -0.02690
	147.50			  10.20784			  0.25129			 -0.07368
	147.75			  10.11649			  0.41107			 -0.09828
	148.00			  10.07689			  0.27533			 -0.11056
	148.25			  10.18084			  0.34852			 -0.13652
	148.50			  10.17874			  0.29520			 -0.01396
	148.75			  10.11494			  0.17810			 0.03620
	149.00			  10.21461			  0.26453			 0.02409
	149.25			  10.19485			  0.33946			 -0.13054
	149.50			  10.24643			  0.36193			 -0.13846
	149.75			  10.21609			  0.18647			 -0.09627
	150.00			  10.26876			  0.08192			 -0.10967
	150.25			  10.24060			  -0.04267			 0.05202
	150.50			  10.05619			  0.07338			 -0.07050
	150.75			  10.03215			  0.06780			 -0.06119
	151.00			  9.95449			  0.27777			 0.07295
	151.25			  9.99114			  0.26209			 -0.05081
	151.50			  10.01324			  0.26035			 -0.02204
	151.75			  10.00203			  0.27551			 0.06006
	152.00			  9.85707			  0.23804			 0.08894
	152.25			  9.92368			  0.20075			 0.04520
	152.50			  10.21609			  0.17026			 0.04288
	152.75			  10.20768			  0.14099			 -0.03116
	153.00			  10.17072			  0.19256			 0.03893
	153.25			  10.13260			  0.10004			 0.07587
	153.50			  10.11353			  0.04689			 0.01246
	153.75			  10.20037			  -0.03117			 -0.10127
	154.00			  10.16940			  -0.01584			 -0.05368
	154.25			  10.21889			  -0.12387			 0.04814
	154.50			  10.28651			  -0.20472			 0.12036
	154.75			  10.20465			  -0.14356			 0.11919
	155.00			  10.21321			  -0.08676			 0.22538
	155.25			  10.27826			  -0.13990			 0.29868
	155.50			  10.32494			  -0.19863			 0.03701
	155.75			  10.24511			  -0.12230			 0.04936
	156.00			  10.19827			  -0.11952			 0.32201
	156.25			  10.40065			  -0.04389			 0.31861
	156.50			  10.35607			  0.01361			 0.22909
	156.75			  10.24457			  0.10910			 0.11048
	157.00			  10.21033			  0.14883			 0.11966
	157.25			  10.16956			  0.04445			 0.09286
	157.50			  10.20185			  -0.08449			 0.07726
	157.75			  10.24060			  -0.00050			 0.18530
	158.00			  10.18022			  0.04027			 0.15364
	158.25			  10.12637			  -0.02664			 0.22622
	158.50			  10.23258			  -0.11603			 0.23876
	158.75			  10.15781			  -0.22598			 0.19073
	159.00			  10.18870			  -0.11690			 0.14474
	159.25			  10.17866			  -0.10279			 0.10193
	159.50			  10.09805			  -0.24445			 0.09181
	159.75			  10.00732			  -0.16900			 0.09368
	160.00			  9.89505			  -0.08501			 0.16556
	160.25			  9.77039			  0.05874			 0.25309
	160.50			  9.77086			  0.02354			 0.35675
	160.75			  9.67165			  -0.07926			 0.24560
	161.00			  9.74635			  -0.12509			 0.22998
	161.25			  9.79257			  -0.15140			 0.20174
	161.50			  9.83358			  -0.10714			 0.17147
	161.75			  9.98336			  -0.08449			 0.10160
	162.00			  9.91496			  0.03923			 -0.05181
	162.25			  9.85544			  0.00316			 -0.08163
	162.50			  9.77763			  0.03644			 -0.15504
	162.75			  9.65586			  -0.02821			 -0.06885
	163.00			  9.79576			  -0.09686			 0.04484
	163.25			  9.85287			  -0.17841			 0.20275
	163.50			  9.82852			  -0.18259			 0.00583
	163.75			  9.95076			  -0.11011			 0.09851
	164.00			  10.07681			  -0.14583			 0.04333
	164.25			  10.02172			  -0.06010			 -0.02989
	164.50			  9.97962			  -0.10906			 0.06609
	164.75			  9.91590			  0.04898			 -0.04291
	165.00			  9.93099			  0.05944			 -0.00429
	165.25			  9.95262			  -0.02316			 -0.05674
	165.50			  10.00336			  -0.11063			 -0.06267