--------------TurbSim v2.00.* User Time Series Input File-----------------------
     Time series input from low-res turbsim run
--------------------------------------------------------------------------------
          3 nComp - Number of velocity components in the file
          1 nPoints - Number of time series points contained in this file (-)
          1 RefPtID - Index of the reference point (1-nPoints)
     Pointyi Pointzi ! nPoints listed in order of increasing height
       (m)     (m)
       -2.37044   94.00000
--------Time Series-------------------------------------------------------------
Elapsed Time         Point01u             Point01v           Point01w
         (s)            (m/s)                (m/s)              (m/s)
	0.00			  10.09661			  -0.36264			 -0.18072
	0.25			  10.07585			  -0.28585			 -0.17093
	0.50			  9.98250			  -0.30887			 -0.04441
	0.75			  9.95752			  -0.25287			 -0.06614
	1.00			  9.90462			  -0.30406			 -0.15348
	1.25			  9.99118			  -0.22453			 -0.03359
	1.50			  9.93066			  -0.20700			 0.02839
	1.75			  9.89089			  -0.25201			 0.02960
	2.00			  9.91172			  -0.19034			 0.07236
	2.25			  9.91504			  -0.19275			 0.15079
	2.50			  10.00409			  -0.19756			 0.04145
	2.75			  10.03291			  -0.21285			 0.00001
	3.00			  10.01971			  -0.11854			 0.00404
	3.25			  10.07110			  -0.19154			 0.06287
	3.50			  10.02378			  -0.11149			 0.11325
	3.75			  10.01503			  -0.10170			 0.11793
	4.00			  10.05253			  -0.23569			 0.05532
	4.25			  10.09962			  -0.10737			 0.08603
	4.50			  10.11728			  0.05617			 0.18513
	4.75			  10.26052			  0.14343			 0.07985
	5.00			  10.26331			  0.22503			 0.04353
	5.25			  10.29327			  0.26901			 0.16024
	5.50			  10.30565			  0.29254			 0.12803
	5.75			  10.28301			  0.34562			 0.12628
	6.00			  10.32338			  0.39149			 0.10915
	6.25			  10.23818			  0.40334			 -0.03355
	6.50			  10.21343			  0.30250			 0.13999
	6.75			  10.23667			  0.38547			 0.06087
	7.00			  10.18649			  0.34820			 -0.01583
	7.25			  10.10778			  0.33171			 -0.13276
	7.50			  10.09698			  0.37276			 -0.16341
	7.75			  10.26059			  0.32123			 -0.05066
	8.00			  10.41032			  0.26591			 -0.04638
	8.25			  10.54185			  0.31504			 -0.03545
	8.50			  10.62864			  0.29683			 0.04430
	8.75			  10.54314			  0.31642			 -0.16975
	9.00			  10.51174			  0.18655			 -0.24990
	9.25			  10.46586			  0.21610			 -0.12338
	9.50			  10.38262			  0.21970			 -0.02595
	9.75			  10.23433			  -0.00722			 -0.01733
	10.00			  10.26671			  -0.05068			 -0.08041
	10.25			  10.24475			  -0.10754			 -0.06713
	10.50			  10.21396			  -0.03711			 -0.08543
	10.75			  10.17947			  0.03315			 -0.04558
	11.00			  10.07178			  0.15048			 -0.06576
	11.25			  10.13381			  0.11646			 -0.20559
	11.50			  10.33689			  0.20081			 -0.16352
	11.75			  10.36013			  0.12265			 -0.17996
	12.00			  10.27916			  0.07970			 -0.19318
	12.25			  10.37794			  0.01047			 -0.01536
	12.50			  10.42775			  0.03401			 -0.03783
	12.75			  10.43054			  0.18037			 0.02830
	13.00			  10.36828			  0.12883			 -0.03256
	13.25			  10.38843			  0.08932			 -0.17548
	13.50			  10.39153			  -0.03471			 -0.12878
	13.75			  10.31297			  -0.11871			 -0.06791
	14.00			  10.27282			  -0.13039			 -0.11094
	14.25			  10.23033			  -0.23878			 -0.04865
	14.50			  10.30316			  -0.19773			 -0.16265
	14.75			  10.22543			  -0.36659			 -0.14038
	15.00			  10.34594			  -0.33103			 -0.11500
	15.25			  10.33500			  -0.29564			 -0.03554
	15.50			  10.40602			  -0.19223			 0.00769
	15.75			  10.50669			  -0.14430			 0.00144
	16.00			  10.31953			  -0.10840			 -0.08370
	16.25			  10.27591			  -0.21783			 -0.03707
	16.50			  10.26512			  -0.27022			 -0.03005
	16.75			  10.25576			  -0.17127			 -0.01090
	17.00			  10.21169			  -0.30595			 0.03762
	17.25			  10.20686			  -0.29358			 0.01275
	17.50			  10.23901			  -0.28328			 0.00319
	17.75			  10.18007			  -0.29874			 0.07310
	18.00			  10.26090			  -0.26885			 0.04804
	18.25			  10.27569			  -0.14602			 -0.02436
	18.50			  10.16015			  -0.18502			 -0.04065
	18.75			  10.18905			  -0.23191			 -0.00270
	19.00			  10.01541			  -0.17024			 0.01434
	19.25			  9.92975			  -0.18330			 0.07774
	19.50			  9.93217			  -0.07456			 0.14246
	19.75			  10.13336			  -0.01117			 -0.06345
	20.00			  10.09095			  0.01992			 0.07364
	20.25			  9.97586			  -0.01358			 0.01564
	20.50			  9.92138			  -0.12884			 0.06002
	20.75			  9.97330			  -0.21044			 0.07319
	21.00			  10.08929			  -0.23312			 0.10263
	21.25			  9.97896			  -0.27709			 0.11674
	21.50			  9.91609			  -0.43307			 0.03383
	21.75			  9.91436			  -0.46915			 -0.02591
	22.00			  9.93745			  -0.31712			 -0.10792
	22.25			  9.92553			  -0.23844			 -0.22969
	22.50			  9.93828			  -0.18089			 -0.15402
	22.75			  10.01405			  -0.26472			 -0.11220
	23.00			  9.92168			  -0.35285			 -0.08765
	23.25			  9.91458			  -0.37157			 -0.31540
	23.50			  9.99616			  -0.39579			 -0.28836
	23.75			  9.99382			  -0.43634			 -0.17624
	24.00			  10.11057			  -0.37157			 -0.20740
	24.25			  10.08415			  -0.43170			 -0.09143
	24.50			  10.06031			  -0.41211			 -0.01861
	24.75			  9.99065			  -0.40387			 -0.11072
	25.00			  10.03820			  -0.48924			 -0.07575
	25.25			  10.01073			  -0.39648			 -0.11314
	25.50			  10.01774			  -0.41263			 0.07465
	25.75			  10.07276			  -0.42431			 0.00449
	26.00			  10.04106			  -0.32313			 0.19566
	26.25			  10.01224			  -0.27950			 0.28392
	26.50			  10.03420			  -0.12695			 0.14156
	26.75			  10.00544			  -0.23535			 0.01334
	27.00			  10.02250			  -0.30131			 -0.03767
	27.25			  10.13992			  -0.20323			 -0.13982
	27.50			  10.27425			  -0.16801			 -0.08928
	27.75			  10.18550			  -0.18691			 -0.01126
	28.00			  10.14755			  -0.33000			 -0.01760
	28.25			  10.19547			  -0.31282			 0.04593
	28.50			  10.24414			  -0.26163			 0.04559
	28.75			  10.18581			  -0.40490			 0.10843
	29.00			  10.27644			  -0.38944			 0.01076
	29.25			  10.27757			  -0.34203			 0.03119
	29.50			  10.21388			  -0.27331			 0.06441
	29.75			  10.17939			  -0.43427			 0.00254
	30.00			  10.23388			  -0.70758			 0.17942
	30.25			  10.10544			  -0.69710			 0.23177
	30.50			  10.09570			  -0.70397			 0.30475
	30.75			  10.05548			  -0.62787			 0.34239
	31.00			  9.96877			  -0.55229			 0.25791
	31.25			  10.01435			  -0.47499			 0.11531
	31.50			  10.02227			  -0.62478			 0.00751
	31.75			  10.10559			  -0.59833			 0.07548
	32.00			  10.06031			  -0.43685			 0.04244
	32.25			  10.10151			  -0.46159			 0.11109
	32.50			  10.24882			  -0.35989			 0.06372
	32.75			  10.20611			  -0.40456			 0.11394
	33.00			  10.19690			  -0.33361			 0.18551
	33.25			  10.17207			  -0.26782			 0.19969
	33.50			  10.14340			  -0.34100			 0.19866
	33.75			  10.22905			  -0.36900			 0.17218
	34.00			  10.20362			  -0.35439			 0.23090
	34.25			  10.22158			  -0.34271			 0.22120
	34.50			  10.24988			  -0.43771			 0.32686
	34.75			  10.27523			  -0.43221			 0.36539
	35.00			  10.28565			  -0.21920			 0.35545
	35.25			  10.24618			  -0.13829			 0.21698
	35.50			  10.25448			  -0.14654			 0.31116
	35.75			  10.32195			  -0.07198			 0.32883
	36.00			  10.36632			  -0.11304			 0.26114
	36.25			  10.50261			  -0.11527			 0.14407
	36.50			  10.55031			  -0.04450			 0.26627
	36.75			  10.34021			  -0.10651			 0.23045
	37.00			  10.26316			  -0.14705			 0.28284
	37.25			  10.23546			  -0.25115			 0.28488
	37.50			  10.33885			  -0.26885			 0.20735
	37.75			  10.24784			  -0.14722			 0.11336
	38.00			  10.21448			  -0.10909			 0.16537
	38.25			  10.29184			  0.04156			 0.19924
	38.50			  10.27297			  -0.01323			 0.14441
	38.75			  10.19879			  -0.11888			 0.04636
	39.00			  10.14596			  -0.09311			 0.08925
	39.25			  10.16800			  -0.23964			 0.19315
	39.50			  10.16475			  -0.19842			 0.08518
	39.75			  10.01080			  -0.16629			 0.06981
	40.00			  10.03231			  -0.20065			 0.03408
	40.25			  10.08400			  -0.14293			 0.10070
	40.50			  9.98280			  -0.01323			 0.10209
	40.75			  10.01857			  0.14137			 0.17825
	41.00			  10.15268			  0.05995			 0.13522
	41.25			  10.23260			  0.09258			 0.01737
	41.50			  10.24392			  0.14498			 0.05818
	41.75			  10.18935			  0.06974			 0.01676
	42.00			  10.17562			  0.06046			 0.00406
	42.25			  10.19916			  0.17092			 -0.00680
	42.50			  10.15283			  0.17435			 0.05897
	42.75			  10.13660			  0.10255			 -0.03563
	43.00			  10.11494			  0.16817			 -0.15662
	43.25			  10.11811			  0.10238			 -0.09172
	43.50			  9.87315			  0.08795			 -0.03700
	43.75			  9.74433			  0.13467			 0.04772
	44.00			  9.78863			  -0.03711			 -0.11847
	44.25			  9.83044			  -0.12403			 -0.09009
	44.50			  9.74773			  -0.10565			 -0.10185
	44.75			  9.59921			  -0.15135			 -0.05810
	45.00			  9.57386			  -0.20855			 -0.10295
	45.25			  9.62464			  -0.15908			 -0.10846
	45.50			  9.61174			  -0.07112			 -0.19782
	45.75			  9.71837			  -0.06150			 -0.32740
	46.00			  9.73520			  -0.18965			 -0.42171
	46.25			  9.71022			  -0.33687			 -0.30153
	46.50			  9.74879			  -0.42276			 -0.25171
	46.75			  9.82923			  -0.37930			 -0.26184
	47.00			  9.90364			  -0.42259			 -0.39396
	47.25			  9.85429			  -0.62822			 -0.28531
	47.50			  9.82636			  -0.55487			 -0.33081
	47.75			  9.75595			  -0.41847			 -0.38515
	48.00			  9.79391			  -0.13984			 -0.34916
	48.25			  9.79550			  0.03057			 -0.22725
	48.50			  9.85112			  0.00755			 -0.24999
	48.75			  9.77346			  -0.08882			 -0.23207
	49.00			  9.79399			  -0.04948			 -0.27109
	49.25			  9.85723			  -0.15392			 -0.25144
	49.50			  9.94809			  -0.18828			 -0.20203
	49.75			  9.94847			  -0.09483			 -0.13393
	50.00			  9.80621			  -0.16217			 -0.14322
	50.25			  9.76841			  -0.10187			 -0.15743
	50.50			  9.66087			  0.03126			 -0.21316
	50.75			  9.73769			  -0.18691			 -0.09844
	51.00			  9.76192			  -0.23861			 -0.07309
	51.25			  9.78282			  -0.19859			 -0.17848
	51.50			  9.76871			  -0.17643			 -0.23547
	51.75			  9.65679			  -0.30595			 -0.22819
	52.00			  9.71015			  -0.11630			 -0.20406
	52.25			  9.68011			  -0.07095			 -0.23292
	52.50			  9.60291			  -0.20254			 -0.17691
	52.75			  9.66298			  -0.11819			 -0.01563
	53.00			  9.78546			  -0.17866			 0.06972
	53.25			  9.82908			  -0.00035			 0.14508
	53.50			  9.81995			  -0.04244			 -0.02418
	53.75			  9.83663			  -0.10033			 -0.10879
	54.00			  9.76690			  -0.23518			 -0.15234
	54.25			  9.81497			  -0.03265			 -0.21914
	54.50			  9.81897			  -0.04690			 -0.32716
	54.75			  9.81376			  -0.11733			 -0.27655
	55.00			  9.91164			  -0.26575			 -0.28126
	55.25			  9.90251			  -0.27452			 -0.28491
	55.50			  9.88334			  -0.21886			 -0.26638
	55.75			  9.91247			  -0.25528			 -0.10091
	56.00			  9.90402			  -0.20391			 -0.17394
	56.25			  9.90047			  -0.18038			 -0.05449
	56.50			  9.93571			  -0.13589			 -0.01664
	56.75			  10.11336			  -0.16715			 -0.08256
	57.00			  10.03344			  -0.02646			 0.04645
	57.25			  10.11653			  -0.06254			 -0.07768
	57.50			  10.02605			  -0.14963			 0.00827
	57.75			  9.94424			  -0.01942			 0.02765
	58.00			  9.90266			  0.02026			 0.08274
	58.25			  9.95171			  0.13330			 0.17315
	58.50			  9.81919			  0.06785			 0.10500
	58.75			  9.73090			  0.01597			 0.00245
	59.00			  9.97073			  0.07661			 -0.01681
	59.25			  10.03691			  0.00772			 -0.13467
	59.50			  10.00824			  -0.06941			 -0.01079
	59.75			  9.94688			  -0.06511			 -0.00122
	60.00			  9.96198			  -0.04828			 -0.01267
	60.25			  10.05653			  -0.01581			 -0.06240
	60.50			  10.04461			  0.11096			 -0.08229
	60.75			  9.93692			  0.17487			 -0.07201
	61.00			  9.88742			  0.02250			 -0.09038
	61.25			  10.00952			  0.03641			 -0.15351
	61.50			  9.95745			  0.00893			 -0.27122
	61.75			  9.99820			  0.11303			 -0.03707
	62.00			  9.98182			  0.22194			 0.07310
	62.25			  9.87957			  0.21163			 -0.09417
	62.50			  9.78410			  0.11818			 -0.02569
	62.75			  9.75988			  0.13278			 0.05812
	63.00			  9.85542			  0.12608			 0.04445
	63.25			  9.97956			  0.19978			 0.01284
	63.50			  10.14053			  0.17023			 0.17035
	63.75			  10.03216			  0.21799			 0.04181
	64.00			  9.92409			  0.11766			 -0.15998
	64.25			  10.09947			  0.00669			 -0.18234
	64.50			  10.05148			  -0.00774			 -0.06545
	64.75			  9.91579			  -0.02303			 0.04922
	65.00			  9.78863			  0.09533			 -0.20003
	65.25			  9.77142			  0.22950			 -0.23740
	65.50			  9.74313			  0.23619			 -0.02345
	65.75			  9.60525			  0.08623			 0.01827
	66.00			  9.61725			  0.09739			 0.06029
	66.25			  9.68773			  -0.00396			 -0.00888
	66.50			  9.54473			  -0.15736			 -0.05467
	66.75			  9.56155			  -0.03488			 -0.13709
	67.00			  9.75754			  0.00549			 -0.11202
	67.25			  9.72788			  -0.07886			 -0.07107
	67.50			  9.80312			  0.02181			 -0.04000
	67.75			  9.72592			  -0.08366			 0.09848
	68.00			  9.71588			  -0.13726			 -0.04323
	68.25			  9.79286			  -0.10136			 -0.01903
	68.50			  9.93307			  -0.12884			 -0.09172
	68.75			  9.89368			  -0.12902			 0.00545
	69.00			  9.83557			  -0.08074			 -0.13494
	69.25			  9.82516			  -0.10703			 -0.25171
	69.50			  9.77739			  0.00566			 -0.22772
	69.75			  9.73679			  0.00102			 -0.17358
	70.00			  9.69264			  0.00034			 -0.06894
	70.25			  9.66909			  -0.02663			 0.02149
	70.50			  9.70192			  -0.02818			 0.04544
	70.75			  9.65309			  -0.14722			 -0.13559
	71.00			  9.62849			  -0.18691			 -0.06345
	71.25			  9.73656			  -0.10479			 -0.04452
	71.50			  9.77678			  0.05806			 0.07124
	71.75			  9.88402			  0.03847			 -0.14309
	72.00			  9.80493			  0.22537			 -0.20151
	72.25			  9.69656			  0.32002			 -0.27635
	72.50			  9.65634			  0.17624			 -0.19640
	72.75			  9.60751			  0.09636			 -0.21323
	73.00			  9.62012			  0.03607			 0.00301
	73.25			  9.56337			  0.01992			 -0.00169
	73.50			  9.55416			  -0.06494			 0.09920
	73.75			  9.62313			  -0.03866			 0.13715
	74.00			  9.59280			  -0.16990			 0.04037
	74.25			  9.65898			  -0.13417			 0.04421
	74.50			  9.62796			  -0.19893			 -0.01057
	74.75			  9.69694			  -0.33378			 -0.02199
	75.00			  9.73264			  -0.24497			 0.01829
	75.25			  9.71905			  -0.25596			 0.15838
	75.50			  9.69920			  -0.27091			 0.14293
	75.75			  9.64774			  -0.27417			 0.16710
	76.00			  9.73867			  -0.37741			 0.20829
	76.25			  9.65340			  -0.43221			 0.14342
	76.50			  9.67800			  -0.40593			 0.17774
	76.75			  9.65664			  -0.30767			 0.03990
	77.00			  9.59733			  -0.23724			 0.08029
	77.25			  9.41930			  -0.22745			 0.23744
	77.50			  9.43590			  -0.29736			 0.22285
	77.75			  9.40987			  -0.24205			 0.14138
	78.00			  9.39598			  -0.16715			 0.13910
	78.25			  9.37349			  -0.22865			 0.18323
	78.50			  9.53001			  -0.20288			 0.02348
	78.75			  9.52058			  -0.14035			 -0.01843
	79.00			  9.60555			  -0.12575			 0.07868
	79.25			  9.63815			  -0.12163			 0.23464
	79.50			  9.48979			  -0.17591			 0.22158
	79.75			  9.45877			  -0.07834			 0.20021
	80.00			  9.52843			  -0.12335			 0.15540
	80.25			  9.52624			  -0.11819			 0.13813
	80.50			  9.45266			  -0.17591			 0.24434
	80.75			  9.43787			  -0.06030			 0.21577
	81.00			  9.44104			  -0.20580			 0.21311
	81.25			  9.55401			  -0.16526			 0.18435
	81.50			  9.54435			  -0.09895			 0.20639
	81.75			  9.48964			  -0.16870			 0.11383
	82.00			  9.54133			  -0.19120			 -0.00602
	82.25			  9.51514			  -0.22831			 0.01923
	82.50			  9.60563			  -0.07078			 0.01107
	82.75			  9.49575			  -0.04742			 -0.01617
	83.00			  9.45922			  0.10409			 0.09071
	83.25			  9.49537			  0.09138			 0.11089
	83.50			  9.53439			  0.13055			 -0.00940
	83.75			  9.52080			  0.23482			 0.03224
	84.00			  9.50843			  0.03023			 0.10097
	84.25			  9.58080			  0.07077			 0.06166
	84.50			  9.80176			  0.03160			 -0.03104
	84.75			  9.76161			  0.07953			 0.04358
	85.00			  9.67294			  0.09138			 0.06412
	85.25			  9.56344			  0.17246			 -0.01130
	85.50			  9.60110			  0.29031			 -0.13543
	85.75			  9.57461			  0.31762			 -0.13218
	86.00			  9.61174			  0.28498			 -0.12161
	86.25			  9.60895			  0.21111			 -0.00960
	86.50			  9.51212			  0.23671			 0.02241
	86.75			  9.57997			  0.20579			 0.08170
	87.00			  9.54548			  0.09104			 0.01773
	87.25			  9.59936			  0.08537			 0.17380
	87.50			  9.54276			  0.08692			 0.01670
	87.75			  9.61046			  0.21884			 0.06461
	88.00			  9.76690			  0.18071			 0.05812
	88.25			  9.66147			  0.15391			 0.00971
	88.50			  9.62864			  0.08245			 -0.07618
	88.75			  9.67392			  0.04998			 0.02799
	89.00			  9.64947			  0.10100			 0.15180
	89.25			  9.84463			  -0.00842			 0.15581
	89.50			  10.03080			  -0.04158			 0.13836
	89.75			  9.95058			  -0.06185			 0.01533
	90.00			  10.03842			  -0.04123			 -0.03091
	90.25			  10.02476			  -0.11012			 -0.07786
	90.50			  9.91564			  -0.21044			 -0.08099
	90.75			  10.08695			  -0.14843			 0.04248
	91.00			  10.06506			  -0.13091			 -0.00882
	91.25			  10.06514			  -0.16646			 -0.09381
	91.50			  10.01608			  0.04431			 -0.06392
	91.75			  9.93217			  0.18174			 0.00438
	92.00			  10.06634			  0.16611			 -0.07546
	92.25			  10.04748			  0.07815			 -0.09697
	92.50			  9.96575			  0.20630			 -0.11504
	92.75			  10.10227			  0.19187			 -0.09605
	93.00			  10.11540			  0.10719			 0.02026
	93.25			  10.09321			  0.06527			 0.11067
	93.50			  10.08778			  0.04242			 0.02902
	93.75			  10.02590			  -0.07645			 0.06363
	94.00			  9.93632			  -0.01238			 -0.10295
	94.25			  9.99895			  -0.12867			 -0.02082
	94.50			  10.01842			  -0.12919			 0.06219
	94.75			  10.07691			  -0.23483			 0.04546
	95.00			  10.03020			  -0.17694			 0.05686
	95.25			  9.95375			  -0.23088			 0.05408
	95.50			  9.98228			  -0.22710			 -0.01979
	95.75			  10.01359			  -0.22676			 0.04501
	96.00			  9.96862			  -0.17351			 0.03092
	96.25			  9.91081			  -0.22229			 -0.08583
	96.50			  9.79044			  -0.27950			 -0.16289
	96.75			  9.80931			  -0.31403			 -0.26688
	97.00			  9.96130			  -0.22556			 -0.15606
	97.25			  9.89828			  -0.28001			 -0.06672
	97.50			  9.80131			  -0.30389			 -0.02152
	97.75			  9.75973			  -0.15032			 0.03231
	98.00			  9.73747			  -0.12524			 -0.02775
	98.25			  9.79972			  -0.25751			 -0.05642
	98.50			  9.68909			  -0.28671			 -0.07053
	98.75			  9.69822			  -0.26335			 -0.15890
	99.00			  9.71007			  -0.30355			 -0.13220
	99.25			  9.70132			  -0.44286			 -0.13355
	99.50			  9.76924			  -0.48392			 -0.14300
	99.75			  9.86742			  -0.29942			 -0.24300
	100.00			  9.92900			  -0.19962			 -0.05978
	100.25			  10.09140			  -0.31282			 -0.07499
	100.50			  10.07291			  -0.39906			 -0.08559
	100.75			  10.02756			  -0.32674			 -0.19302
	101.00			  10.02484			  -0.36298			 -0.16538
	101.25			  9.95933			  -0.41761			 -0.15393
	101.50			  9.87881			  -0.32914			 -0.16005
	101.75			  9.88138			  -0.41263			 -0.03420
	102.00			  9.88825			  -0.47275			 -0.08467
	102.25			  9.90055			  -0.42500			 -0.10675
	102.50			  10.09525			  -0.23123			 0.05308
	102.75			  10.07163			  -0.17248			 0.06773
	103.00			  9.98296			  -0.15547			 0.11593
	103.25			  10.01103			  -0.13279			 0.10731
	103.50			  10.00959			  -0.09036			 -0.06086
	103.75			  9.99812			  -0.10411			 -0.02923
	104.00			  10.14928			  -0.08212			 0.02915
	104.25			  10.04906			  0.05033			 0.05751
	104.50			  10.02922			  0.16044			 0.07333
	104.75			  9.97601			  0.10306			 -0.00293
	105.00			  10.03963			  0.05548			 0.05850
	105.25			  10.18467			  0.10616			 -0.02712
	105.50			  10.17803			  0.12935			 -0.03489
	105.75			  10.19388			  0.19205			 -0.02116
	106.00			  10.17886			  0.11217			 -0.03052
	106.25			  10.04386			  0.30061			 0.03307
	106.50			  10.20588			  0.27966			 -0.12463
	106.75			  10.15788			  0.21816			 -0.07898
	107.00			  10.06431			  0.15425			 -0.06991
	107.25			  10.11894			  0.15889			 -0.02320
	107.50			  10.11608			  0.00257			 0.08088
	107.75			  10.07404			  -0.08332			 0.13831
	108.00			  10.02499			  -0.06992			 0.12899
	108.25			  9.92756			  -0.10342			 0.06918
	108.50			  9.95654			  -0.16200			 0.03921
	108.75			  9.98628			  -0.24274			 -0.01460
	109.00			  10.00356			  -0.19962			 -0.03048
	109.25			  9.90719			  -0.26988			 -0.06807
	109.50			  9.93134			  -0.15633			 -0.03895
	109.75			  9.93949			  -0.08178			 0.00281
	110.00			  10.00190			  -0.10754			 -0.15859
	110.25			  9.93647			  -0.09432			 -0.13688
	110.50			  9.91707			  -0.00413			 -0.15987
	110.75			  9.84116			  -0.15358			 0.00731
	111.00			  9.72215			  -0.16011			 -0.01677
	111.25			  9.70298			  -0.15856			 -0.03185
	111.50			  9.65143			  -0.12266			 -0.04957
	111.75			  9.58238			  -0.15684			 -0.12490
	112.00			  9.59416			  -0.15788			 -0.08480
	112.25			  9.68622			  -0.09603			 -0.10077
	112.50			  9.69022			  0.01013			 -0.08581
	112.75			  9.72011			  -0.19154			 -0.03901
	113.00			  9.61174			  -0.18124			 -0.01908
	113.25			  9.56865			  -0.16354			 0.02245
	113.50			  9.55891			  -0.07422			 0.00442
	113.75			  9.51763			  -0.19739			 -0.02743
	114.00			  9.60963			  0.01030			 0.03863
	114.25			  9.53446			  0.01648			 0.00630
	114.50			  9.59499			  0.00686			 -0.03693
	114.75			  9.57597			  -0.16818			 -0.13722
	115.00			  9.51688			  -0.11922			 -0.09354
	115.25			  9.46647			  -0.05223			 -0.05176
	115.50			  9.45454			  -0.02148			 -0.16934
	115.75			  9.51348			  0.11011			 -0.12315
	116.00			  9.53129			  0.08623			 -0.10740
	116.25			  9.50096			  0.04431			 -0.01457
	116.50			  9.50858			  0.05033			 0.03507
	116.75			  9.45341			  -0.03505			 0.11459
	117.00			  9.48782			  -0.28568			 0.07736
	117.25			  9.39719			  -0.38325			 0.05606
	117.50			  9.53590			  -0.32124			 0.05028
	117.75			  9.64223			  -0.16767			 0.01683
	118.00			  9.75958			  -0.24617			 0.01233
	118.25			  9.77444			  -0.21302			 -0.00447
	118.50			  9.89187			  -0.13451			 -0.00978
	118.75			  9.83021			  0.00051			 -0.01352
	119.00			  9.78184			  -0.01581			 0.02729
	119.25			  9.79912			  0.02765			 -0.02349
	119.50			  9.75724			  -0.05807			 -0.00165
	119.75			  9.86742			  -0.12025			 -0.02754
	120.00			  9.83338			  -0.12867			 -0.14649
	120.25			  9.96062			  -0.05601			 -0.11240
	120.50			  10.09397			  -0.08830			 -0.21123
	120.75			  10.05057			  -0.03952			 -0.23339
	121.00			  10.09502			  0.04912			 -0.12994
	121.25			  10.14521			  0.02112			 -0.00057
	121.50			  10.29018			  -0.09328			 -0.05750
	121.75			  10.34240			  -0.10531			 0.02568
	122.00			  10.34949			  -0.01100			 0.00270
	122.25			  10.15502			  -0.05996			 -0.01699
	122.50			  10.17245			  -0.11081			 0.05433
	122.75			  10.14272			  -0.03161			 0.05825
	123.00			  10.11691			  -0.00653			 0.06401
	123.25			  10.22309			  -0.02148			 0.09931
	123.50			  10.20452			  0.07901			 0.01443
	123.75			  10.14589			  0.06647			 -0.04556
	124.00			  10.12445			  0.09035			 -0.02282
	124.25			  10.22988			  0.13673			 0.02790
	124.50			  10.17419			  0.19256			 0.05733
	124.75			  10.05125			  0.10238			 0.01791
	125.00			  10.08234			  -0.04604			 -0.14036
	125.25			  10.25214			  0.07850			 -0.22709
	125.50			  10.30248			  0.12144			 -0.06439
	125.75			  10.32949			  0.19325			 -0.18283
	126.00			  10.37960			  0.25028			 -0.14166
	126.25			  10.43130			  0.25904			 -0.03095
	126.50			  10.45529			  0.14481			 -0.08176
	126.75			  10.47167			  0.01752			 -0.15207
	127.00			  10.41734			  0.00068			 -0.10855
	127.25			  10.31810			  0.02817			 -0.10631
	127.50			  10.40277			  0.03693			 -0.08167
	127.75			  10.37530			  -0.04261			 -0.09217
	128.00			  10.41017			  -0.10754			 -0.03657
	128.25			  10.45756			  -0.06322			 -0.02723
	128.50			  10.44156			  -0.09346			 0.06891
	128.75			  10.37696			  -0.07301			 0.08213
	129.00			  10.46639			  -0.04467			 0.06022
	129.25			  10.37092			  -0.03728			 0.11502
	129.50			  10.36406			  0.05891			 0.03791
	129.75			  10.43688			  0.01253			 0.01403
	130.00			  10.52850			  0.03727			 -0.09002
	130.25			  10.49793			  -0.06717			 -0.22575
	130.50			  10.48646			  -0.01272			 -0.15153
	130.75			  10.52510			  0.03212			 -0.03863
	131.00			  10.53423			  0.13897			 -0.04912
	131.25			  10.40239			  0.02559			 -0.18209
	131.50			  10.37779			  -0.05927			 -0.14464
	131.75			  10.29863			  -0.11218			 -0.06043
	132.00			  10.36926			  0.05909			 -0.02871
	132.25			  10.33878			  -0.00774			 0.01983
	132.50			  10.24701			  -0.09277			 -0.12250
	132.75			  10.15004			  -0.05395			 -0.09181
	133.00			  10.23297			  -0.10720			 -0.06397
	133.25			  10.25335			  -0.15667			 0.01800
	133.50			  10.27614			  -0.38343			 0.04694
	133.75			  10.38330			  -0.36728			 -0.03435
	134.00			  10.48873			  -0.15959			 -0.02911
	134.25			  10.50480			  -0.16372			 -0.20277
	134.50			  10.54027			  -0.27555			 -0.13218
	134.75			  10.54887			  -0.20374			 -0.09316
	135.00			  10.51250			  -0.17110			 0.02333
	135.25			  10.48435			  -0.07937			 0.11549
	135.50			  10.51408			  -0.06838			 0.11777
	135.75			  10.49559			  -0.05240			 0.06150
	136.00			  10.51220			  -0.14791			 0.06352
	136.25			  10.47831			  -0.30647			 0.06094
	136.50			  10.47393			  -0.28637			 0.04042
	136.75			  10.41039			  -0.21834			 0.00305
	137.00			  10.33327			  -0.28706			 0.04367
	137.25			  10.27116			  -0.25373			 0.03074
	137.50			  10.16045			  -0.27228			 0.04132
	137.75			  10.24195			  -0.28482			 0.03050
	138.00			  10.24105			  -0.21920			 0.00081
	138.25			  10.26097			  -0.26198			 0.05821
	138.50			  10.27486			  -0.16698			 -0.00320
	138.75			  10.32406			  -0.15255			 0.18560
	139.00			  10.26572			  -0.10462			 0.05865
	139.25			  10.27621			  -0.18605			 0.10299
	139.50			  10.42201			  -0.17849			 0.01029
	139.75			  10.33855			  -0.22367			 -0.12535
	140.00			  10.38768			  -0.21233			 -0.10595
	140.25			  10.32957			  -0.17711			 0.03516
	140.50			  10.26142			  -0.22934			 0.00621
	140.75			  10.35666			  -0.25579			 -0.00064
	141.00			  10.28980			  -0.28482			 0.05223
	141.25			  10.35953			  -0.37140			 0.00263
	141.50			  10.49144			  -0.40318			 -0.00649
	141.75			  10.43620			  -0.36728			 0.01786
	142.00			  10.37598			  -0.31214			 -0.05351
	142.25			  10.30029			  -0.25940			 0.06154
	142.50			  10.42383			  -0.30355			 0.06679
	142.75			  10.47469			  -0.27864			 0.14835
	143.00			  10.46261			  -0.29633			 0.13775
	143.25			  10.45869			  -0.41486			 -0.01798
	143.50			  10.32225			  -0.64763			 0.02496
	143.75			  10.31704			  -0.58476			 0.14638
	144.00			  10.28142			  -0.38532			 0.07904
	144.25			  10.35010			  -0.38566			 0.16304
	144.50			  10.36089			  -0.43943			 0.09723
	144.75			  10.24150			  -0.45609			 0.15453
	145.00			  10.19909			  -0.45626			 0.09170
	145.25			  10.18550			  -0.52875			 0.06112
	145.50			  10.21048			  -0.50659			 -0.00429
	145.75			  10.18151			  -0.44321			 -0.00682
	146.00			  10.16090			  -0.33825			 0.10567
	146.25			  10.13087			  -0.28225			 0.01307
	146.50			  10.11781			  -0.31574			 -0.00499
	146.75			  10.13479			  -0.33825			 -0.07790
	147.00			  10.09774			  -0.11201			 -0.06381
	147.25			  10.11298			  -0.15667			 -0.02526
	147.50			  10.08657			  -0.23552			 -0.07324
	147.75			  10.09110			  -0.10600			 -0.09448
	148.00			  9.99178			  0.12488			 -0.12085
	148.25			  10.03472			  0.07953			 -0.07280
	148.50			  10.10091			  -0.03316			 -0.06218
	148.75			  10.00227			  -0.13864			 0.06237
	149.00			  10.03171			  -0.23964			 0.05070
	149.25			  10.13177			  -0.16406			 -0.00703
	149.50			  10.19109			  -0.20924			 -0.11516
	149.75			  10.11615			  -0.11081			 -0.11598
	150.00			  10.07246			  0.05909			 -0.07199
	150.25			  10.07163			  0.06476			 -0.05396
	150.50			  10.01669			  0.00291			 -0.11280
	150.75			  10.01548			  0.08107			 -0.00568
	151.00			  10.07148			  0.16525			 -0.10071
	151.25			  9.98914			  0.28670			 -0.17848
	151.50			  10.05133			  0.09396			 -0.13196
	151.75			  10.03344			  0.13570			 0.01988
	152.00			  10.08687			  0.10014			 -0.03458
	152.25			  10.19984			  0.14601			 -0.15781
	152.50			  10.21388			  0.17607			 -0.30733
	152.75			  10.19184			  0.02971			 -0.23805
	153.00			  10.12521			  0.09052			 -0.25021
	153.25			  9.91541			  0.10856			 -0.10418
	153.50			  9.86681			  0.12333			 -0.13079
	153.75			  9.84531			  0.12144			 0.00590
	154.00			  9.84417			  0.24204			 -0.07474
	154.25			  9.86183			  0.12728			 -0.09381
	154.50			  9.81610			  0.16525			 -0.04580
	154.75			  9.87240			  0.06166			 0.14420
	155.00			  9.80772			  0.03435			 0.18916
	155.25			  9.83217			  0.00360			 0.13782
	155.50			  9.83202			  -0.15461			 0.19210
	155.75			  9.76207			  -0.30715			 0.14815
	156.00			  9.84100			  -0.24067			 0.14053
	156.25			  9.81610			  -0.22659			 0.27301
	156.50			  9.88553			  -0.21817			 0.29131
	156.75			  9.90689			  -0.12214			 0.26150
	157.00			  9.93677			  -0.15581			 0.34982
	157.25			  9.82689			  -0.14379			 0.39765
	157.50			  9.92394			  -0.18364			 0.44928
	157.75			  9.98997			  -0.11562			 0.32827
	158.00			  10.12000			  -0.12884			 0.27361
	158.25			  10.19260			  -0.10943			 0.26891
	158.50			  10.06687			  -0.07886			 0.22521
	158.75			  9.95239			  0.03435			 0.22863
	159.00			  9.95073			  -0.01341			 0.14458
	159.25			  10.02620			  -0.06975			 0.14857
	159.50			  9.96967			  -0.17076			 0.10626
	159.75			  9.87708			  -0.23294			 0.18878
	160.00			  9.96348			  -0.31540			 0.19198
	160.25			  10.04499			  -0.25957			 0.08605
	160.50			  10.03171			  -0.26215			 0.18034
	160.75			  9.89360			  -0.38927			 0.12028
	161.00			  9.83678			  -0.37501			 0.24938
	161.25			  9.85957			  -0.37999			 0.08274
	161.50			  9.95156			  -0.44475			 0.13730
	161.75			  9.89172			  -0.29547			 0.15937
	162.00			  9.73716			  -0.40267			 0.16958
	162.25			  9.71067			  -0.29616			 0.20504
	162.50			  9.86681			  -0.21869			 0.13343
	162.75			  9.92998			  -0.20718			 0.10372
	163.00			  9.97579			  -0.22315			 0.02086
	163.25			  10.00582			  -0.08693			 0.05812
	163.50			  9.86236			  -0.13262			 0.01170
	163.75			  9.80765			  -0.12060			 -0.00505
	164.00			  9.78501			  -0.11132			 0.08531
	164.25			  9.88598			  0.00978			 0.10796
	164.50			  9.93096			  0.13416			 -0.05653
	164.75			  9.91987			  0.10512			 -0.02759
	165.00			  9.81414			  0.08400			 -0.05747
	165.25			  9.64472			  -0.09603			 0.05935
	165.50			  9.63053			  -0.08659			 0.15157