--------------TurbSim v2.00.* User Time Series Input File-----------------------
     Time series input from low-res turbsim run
--------------------------------------------------------------------------------
          3 nComp - Number of velocity components in the file
          1 nPoints - Number of time series points contained in this file (-)
          1 RefPtID - Index of the reference point (1-nPoints)
     Pointyi Pointzi ! nPoints listed in order of increasing height
       (m)     (m)
       -2.37044   94.00000
--------Time Series-------------------------------------------------------------
Elapsed Time         Point01u             Point01v           Point01w
         (s)            (m/s)                (m/s)              (m/s)
	0.00			  10.03705			  -0.28906			 0.09626
	0.25			  10.03674			  -0.25421			 0.09191
	0.50			  9.97799			  -0.24794			 0.10490
	0.75			  10.06856			  -0.28105			 0.24070
	1.00			  10.02639			  -0.33001			 0.22957
	1.25			  10.05634			  -0.29899			 0.22055
	1.50			  10.04281			  -0.36155			 0.17061
	1.75			  10.15687			  -0.33367			 0.13869
	2.00			  10.08054			  -0.42794			 0.04505
	2.25			  10.15462			  -0.43090			 0.11596
	2.50			  10.21780			  -0.22267			 0.18128
	2.75			  10.10404			  -0.03971			 0.08966
	3.00			  10.11836			  -0.05748			 0.14008
	3.25			  10.15835			  -0.02159			 0.11136
	3.50			  10.15516			  -0.05661			 0.13103
	3.75			  10.11252			  -0.21535			 0.01892
	4.00			  10.16014			  -0.18887			 -0.00034
	4.25			  10.02351			  0.00455			 0.03630
	4.50			  10.10194			  0.15510			 0.11261
	4.75			  10.06389			  0.18803			 0.15192
	5.00			  10.06848			  0.10962			 0.17953
	5.25			  10.11167			  0.13123			 0.08145
	5.50			  10.18068			  0.19866			 -0.01601
	5.75			  10.20239			  0.13053			 0.05699
	6.00			  10.23336			  0.10753			 0.09885
	6.25			  10.15236			  -0.04807			 0.14151
	6.50			  10.25375			  -0.03814			 0.17331
	6.75			  10.18582			  -0.12492			 0.04910
	7.00			  10.15291			  -0.08432			 0.04618
	7.25			  10.23881			  0.04637			 -0.03319
	7.50			  10.20784			  0.06658			 -0.01565
	7.75			  10.19181			  0.11886			 -0.00180
	8.00			  10.15859			  0.19831			 0.20172
	8.25			  10.11906			  0.28213			 0.19037
	8.50			  10.19749			  0.28457			 0.36774
	8.75			  10.31125			  0.40585			 0.34744
	9.00			  10.34004			  0.30008			 0.40679
	9.25			  10.30814			  0.18106			 0.33187
	9.50			  10.16707			  0.09638			 0.14646
	9.75			  10.19383			  0.21539			 0.23270
	10.00			  10.17905			  0.27952			 0.15750
	10.25			  10.23531			  0.26052			 0.16252
	10.50			  10.29615			  0.19013			 0.23469
	10.75			  10.41201			  0.12774			 0.20112
	11.00			  10.50336			  0.04863			 0.15948
	11.25			  10.46181			  0.10718			 0.13381
	11.50			  10.41723			  0.07286			 0.18241
	11.75			  10.13633			  0.14029			 0.11840
	12.00			  10.13345			  0.25982			 0.10732
	12.25			  10.16497			  0.31123			 0.13613
	12.50			  10.14217			  0.24449			 -0.06507
	12.75			  10.23577			  0.16416			 -0.08088
	13.00			  10.21764			  0.14325			 0.01689
	13.25			  10.30308			  0.11258			 0.01586
	13.50			  10.33039			  0.09115			 0.07779
	13.75			  10.39575			  -0.02072			 0.04362
	14.00			  10.35350			  0.08157			 0.00423
	14.25			  10.41201			  0.01710			 0.12148
	14.50			  10.38953			  -0.00625			 0.06996
	14.75			  10.32673			  0.06972			 0.22115
	15.00			  10.33381			  -0.02159			 0.14335
	15.25			  10.36354			  0.02441			 0.11476
	15.50			  10.24900			  0.07599			 0.21490
	15.75			  10.19967			  0.05212			 0.08858
	16.00			  10.25336			  0.03539			 0.11445
	16.25			  10.21523			  0.03940			 0.15281
	16.50			  10.08700			  0.08279			 0.19107
	16.75			  10.15081			  0.09690			 0.26489
	17.00			  10.09564			  0.10405			 0.19473
	17.25			  10.17555			  0.08680			 0.11146
	17.50			  10.19928			  0.09655			 0.04127
	17.75			  10.12349			  0.17078			 0.04319
	18.00			  10.19251			  0.15597			 -0.07610
	18.25			  10.14458			  0.05595			 -0.00613
	18.50			  10.18473			  -0.02507			 -0.09067
	18.75			  10.14777			  0.05944			 -0.10333
	19.00			  10.09719			  0.00490			 -0.10553
	19.25			  10.12544			  0.05979			 -0.02972
	19.50			  10.13766			  -0.05156			 -0.06057
	19.75			  10.12606			  0.01187			 -0.12001
	20.00			  10.11875			  0.04985			 -0.28103
	20.25			  10.23040			  0.09777			 -0.32719
	20.50			  10.22208			  0.10892			 -0.24130
	20.75			  10.24145			  0.08906			 -0.25214
	21.00			  10.19928			  0.25181			 -0.22795
	21.25			  10.21049			  0.21905			 -0.21237
	21.50			  10.18917			  0.23926			 -0.14600
	21.75			  10.16341			  0.13018			 0.00942
	22.00			  10.00600			  0.14813			 -0.04095
	22.25			  10.00312			  0.05735			 -0.16086
	22.50			  10.05385			  -0.04877			 -0.19622
	22.75			  9.94656			  0.03452			 -0.24908
	23.00			  10.04125			  -0.07857			 -0.22759
	23.25			  9.96305			  -0.15628			 -0.15717
	23.50			  9.86797			  -0.32896			 -0.25894
	23.75			  9.78728			  -0.21971			 -0.21785
	24.00			  9.78137			  -0.12318			 -0.15047
	24.25			  9.80899			  -0.05992			 -0.07722
	24.50			  9.98709			  -0.00922			 0.00839
	24.75			  9.92422			  -0.14182			 -0.03671
	25.00			  9.92562			  -0.09233			 -0.04296
	25.25			  9.89466			  -0.17754			 -0.03458
	25.50			  9.97527			  -0.30509			 -0.18311
	25.75			  9.94889			  -0.35127			 -0.05167
	26.00			  9.96173			  -0.20891			 0.00811
	26.25			  10.04724			  -0.14130			 -0.11039
	26.50			  10.04319			  -0.17040			 -0.19991
	26.75			  9.96492			  -0.08501			 -0.17031
	27.00			  10.00670			  -0.04389			 -0.07651
	27.25			  10.03977			  -0.06236			 0.13665
	27.50			  10.05899			  -0.15942			 -0.06806
	27.75			  9.93893			  -0.20141			 -0.12671
	28.00			  9.91528			  -0.30858			 -0.22723
	28.25			  9.93792			  -0.31502			 -0.22862
	28.50			  9.99060			  -0.34970			 -0.16057
	28.75			  9.91738			  -0.23243			 -0.12357
	29.00			  9.88462			  -0.18120			 -0.10601
	29.25			  9.94873			  -0.12492			 -0.14868
	29.50			  9.87054			  -0.19863			 -0.19376
	29.75			  9.97317			  -0.25038			 -0.11510
	30.00			  10.00094			  -0.29394			 -0.13047
	30.25			  10.00312			  -0.20891			 -0.13695
	30.50			  9.94788			  -0.28592			 -0.12613
	30.75			  10.05860			  -0.29673			 -0.07663
	31.00			  10.15594			  -0.31119			 -0.08194
	31.25			  10.13773			  -0.40163			 -0.09208
	31.50			  10.14443			  -0.35580			 -0.22350
	31.75			  10.15135			  -0.32687			 -0.08105
	32.00			  10.26589			  -0.26083			 -0.02970
	32.25			  10.21500			  -0.22232			 -0.08194
	32.50			  9.97799			  -0.28645			 -0.12259
	32.75			  9.97550			  -0.20507			 -0.13226
	33.00			  10.03230			  -0.11499			 -0.13867
	33.25			  10.08490			  -0.06881			 -0.21505
	33.50			  10.11066			  -0.07020			 -0.13707
	33.75			  10.18442			  -0.05470			 -0.09936
	34.00			  10.22846			  -0.03291			 -0.14824
	34.25			  10.28308			  -0.00730			 -0.16533
	34.50			  10.31755			  0.05020			 -0.10453
	34.75			  10.26340			  0.05770			 -0.12013
	35.00			  10.22753			  0.07251			 -0.12104
	35.25			  10.21290			  0.05351			 -0.16447
	35.50			  10.30775			  0.02633			 -0.23894
	35.75			  10.24480			  -0.03797			 -0.23058
	36.00			  10.26231			  -0.02298			 -0.21905
	36.25			  10.20877			  0.00019			 -0.34331
	36.50			  10.27219			  0.05508			 -0.27571
	36.75			  10.24869			  0.06414			 -0.21271
	37.00			  10.15018			  0.13872			 -0.20591
	37.25			  10.08140			  0.11363			 -0.06758
	37.50			  10.12311			  0.06484			 -0.06679
	37.75			  10.17057			  -0.13903			 0.04448
	38.00			  10.25219			  -0.18312			 0.07406
	38.25			  10.17251			  -0.21239			 -0.01314
	38.50			  10.30635			  -0.13712			 -0.02391
	38.75			  10.33747			  -0.11446			 -0.02087
	39.00			  10.34315			  -0.11167			 -0.13248
	39.25			  10.40267			  -0.18608			 -0.17631
	39.50			  10.25912			  -0.31642			 -0.14810
	39.75			  10.26635			  -0.19880			 -0.20570
	40.00			  10.31304			  -0.22511			 -0.06387
	40.25			  10.22278			  -0.21727			 -0.04827
	40.50			  10.32378			  -0.15768			 -0.18837
	40.75			  10.29421			  -0.14565			 -0.08352
	41.00			  10.25406			  -0.13955			 -0.18655
	41.25			  10.11369			  -0.08292			 -0.12369
	41.50			  10.21694			  -0.13468			 -0.09821
	41.75			  10.24231			  -0.08101			 -0.11788
	42.00			  10.32650			  0.06641			 0.01268
	42.25			  10.29374			  -0.01828			 0.06525
	42.50			  10.39225			  -0.11063			 0.05613
	42.75			  10.37435			  -0.06968			 -0.03401
	43.00			  10.41349			  -0.04372			 0.13869
	43.25			  10.39715			  -0.07874			 0.08942
	43.50			  10.34408			  -0.25839			 0.03854
	43.75			  10.27507			  -0.20054			 0.05611
	44.00			  10.40120			  -0.33262			 0.04036
	44.25			  10.46726			  -0.24846			 -0.02319
	44.50			  10.53775			  0.02650			 0.10708
	44.75			  10.53013			  0.00542			 0.11105
	45.00			  10.47263			  0.03400			 0.18475
	45.25			  10.46508			  0.12949			 0.10794
	45.50			  10.35723			  0.21347			 0.05891
	45.75			  10.31786			  0.31698			 -0.04583
	46.00			  10.38027			  0.24066			 0.07353
	46.25			  10.44975			  0.10962			 0.00083
	46.50			  10.37054			  0.28683			 -0.09823
	46.75			  10.41147			  0.32761			 0.02440
	47.00			  10.47340			  0.41264			 0.08028
	47.25			  10.57277			  0.40358			 0.10401
	47.50			  10.66505			  0.39661			 0.12395
	47.75			  10.61572			  0.29572			 0.04058
	48.00			  10.61844			  0.38389			 0.01911
	48.25			  10.54016			  0.32029			 0.01170
	48.50			  10.54942			  0.39225			 -0.13621
	48.75			  10.44321			  0.37483			 0.07721
	49.00			  10.39388			  0.49924			 0.10246
	49.25			  10.28759			  0.43982			 -0.00139
	49.50			  10.22776			  0.42972			 0.06441
	49.75			  10.19041			  0.48583			 0.09516
	50.00			  10.18839			  0.62070			 -0.00268
	50.25			  10.04942			  0.73500			 0.07329
	50.50			  10.08988			  0.73274			 -0.03918
	50.75			  10.07774			  0.78780			 0.00392
	51.00			  10.13618			  0.83206			 0.01021
	51.25			  10.14419			  0.70625			 -0.17801
	51.50			  10.07307			  0.75051			 -0.11048
	51.75			  10.15781			  0.78432			 -0.01958
	52.00			  10.18644			  0.60292			 0.10066
	52.25			  10.24036			  0.56180			 0.05606
	52.50			  10.17742			  0.58428			 -0.05540
	52.75			  10.17360			  0.57330			 -0.12149
	53.00			  10.19804			  0.48548			 -0.15686
	53.25			  10.35187			  0.38006			 -0.30297
	53.50			  10.36245			  0.32081			 -0.19589
	53.75			  10.34883			  0.28039			 -0.22889
	54.00			  10.33070			  0.18542			 -0.07433
	54.25			  10.45169			  0.27673			 -0.15703
	54.50			  10.44438			  0.17479			 -0.11238
	54.75			  10.45208			  0.08958			 -0.17804
	55.00			  10.33132			  0.16695			 -0.20826
	55.25			  10.25787			  0.18141			 -0.13087
	55.50			  10.28487			  0.15074			 -0.24310
	55.75			  10.19718			  0.12112			 -0.22068
	56.00			  10.27133			  0.23299			 -0.16480
	56.25			  10.29164			  0.32587			 -0.15633
	56.50			  10.21438			  0.30374			 -0.36406
	56.75			  10.09167			  0.40079			 -0.31268
	57.00			  10.23756			  0.40707			 -0.27102
	57.25			  10.16590			  0.37204			 -0.23061
	57.50			  10.17477			  0.32308			 -0.19120
	57.75			  10.15018			  0.21783			 -0.19668
	58.00			  10.18800			  0.13646			 -0.05779
	58.25			  10.15742			  0.21940			 -0.03075
	58.50			  10.20364			  0.15284			 0.00689
	58.75			  10.26822			  0.17845			 -0.00163
	59.00			  10.13019			  0.27673			 0.02562
	59.25			  10.08101			  0.33789			 -0.07265
	59.50			  10.05557			  0.10004			 -0.07787
	59.75			  10.00149			  0.14848			 -0.11458
	60.00			  10.03261			  0.11468			 0.08025
	60.25			  10.11392			  0.09812			 0.09205
	60.50			  10.07751			  0.11363			 0.11658
	60.75			  10.17547			  -0.01601			 0.13608
	61.00			  10.12544			  0.02459			 0.02462
	61.25			  10.21266			  -0.04738			 0.14536
	61.50			  10.12583			  0.00612			 0.06142
	61.75			  10.12700			  0.20424			 -0.01929
	62.00			  10.05129			  0.27359			 -0.03228
	62.25			  10.07619			  0.26540			 -0.03418
	62.50			  10.24993			  0.30199			 -0.03741
	62.75			  10.22068			  0.30426			 -0.00536
	63.00			  10.28277			  0.29293			 0.05697
	63.25			  10.25383			  0.17427			 0.11328
	63.50			  10.29491			  0.25233			 0.06106
	63.75			  10.26604			  0.25059			 0.04383
	64.00			  10.31989			  0.24484			 -0.11977
	64.25			  10.37435			  0.30774			 0.01072
	64.50			  10.35723			  0.22811			 0.08743
	64.75			  10.31561			  0.37570			 0.00495
	65.00			  10.25530			  0.26801			 -0.01522
	65.25			  10.29110			  0.20041			 0.00447
	65.50			  10.25079			  0.21766			 0.01464
	65.75			  10.24324			  0.23229			 0.06329
	66.00			  10.15540			  0.29711			 0.16980
	66.25			  10.08669			  0.23456			 0.11447
	66.50			  10.23087			  0.15841			 -0.04167
	66.75			  10.26923			  0.13123			 -0.05169
	67.00			  10.23562			  0.17845			 0.05419
	67.25			  10.27997			  0.16381			 0.12170
	67.50			  10.24527			  0.15336			 0.02957
	67.75			  10.28845			  0.14604			 0.01718
	68.00			  10.17749			  0.16190			 0.02175
	68.25			  10.16831			  0.05560			 0.03500
	68.50			  10.24301			  0.12147			 0.02366
	68.75			  10.08257			  0.16329			 0.05467
	69.00			  10.02444			  0.22236			 -0.03269
	69.25			  10.09681			  0.25390			 0.11684
	69.50			  10.07953			  0.22184			 0.10758
	69.75			  10.10116			  0.29764			 0.12866
	70.00			  10.10988			  0.27899			 0.11103
	70.25			  10.14730			  0.37378			 0.10866
	70.50			  10.11634			  0.21330			 0.14041
	70.75			  10.09027			  0.12809			 0.08145
	71.00			  10.07479			  0.14465			 0.12428
	71.25			  10.17788			  -0.05975			 0.05302
	71.50			  10.21259			  -0.11324			 -0.01381
	71.75			  10.02335			  -0.09983			 -0.06153
	72.00			  10.06988			  -0.14530			 0.07054
	72.25			  10.09190			  -0.17841			 0.11471
	72.50			  9.94150			  -0.25264			 0.05407
	72.75			  9.94578			  -0.30701			 -0.00996
	73.00			  9.96694			  -0.36956			 -0.15035
	73.25			  9.96305			  -0.40250			 0.03108
	73.50			  9.96025			  -0.45076			 -0.00620
	73.75			  9.97293			  -0.44937			 -0.03810
	74.00			  9.96663			  -0.53284			 0.02211
	74.25			  9.87404			  -0.55444			 0.06542
	74.50			  9.75841			  -0.51646			 0.04058
	74.75			  9.71764			  -0.38019			 0.00098
	75.00			  9.72503			  -0.29516			 0.16642
	75.25			  9.80354			  -0.23016			 0.08695
	75.50			  9.73507			  -0.19044			 0.17532
	75.75			  9.90073			  -0.28279			 0.09093
	76.00			  9.94780			  -0.20176			 0.03776
	76.25			  10.03168			  -0.07909			 0.00232
	76.50			  10.01643			  0.09011			 -0.01711
	76.75			  10.01347			  0.09742			 0.00157
	77.00			  9.99324			  0.18629			 -0.01522
	77.25			  9.98429			  0.11833			 -0.01096
	77.50			  9.85280			  0.13419			 0.01308
	77.75			  9.84929			  0.19152			 0.01935
	78.00			  9.89676			  -0.03535			 -0.03968
	78.25			  9.95410			  -0.03169			 0.07085
	78.50			  9.93706			  -0.09634			 0.02957
	78.75			  9.97348			  0.02163			 -0.11546
	79.00			  10.07759			  0.00246			 -0.13094
	79.25			  10.07533			  0.00089			 -0.09876
	79.50			  9.97387			  0.17026			 -0.09859
	79.75			  10.08210			  0.20877			 0.02105
	80.00			  10.28261			  0.27812			 -0.06253
	80.25			  10.25717			  0.13071			 0.05388
	80.50			  10.35327			  0.04933			 -0.00084
	80.75			  10.21243			  -0.01775			 -0.03365
	81.00			  10.24083			  0.00507			 -0.03427
	81.25			  10.26285			  0.00176			 -0.02142
	81.50			  10.19329			  0.03051			 -0.12199
	81.75			  10.24566			  -0.00033			 -0.10132
	82.00			  10.26962			  -0.13450			 0.02431
	82.25			  10.20776			  -0.14879			 -0.01398
	82.50			  10.12264			  -0.12893			 -0.00898
	82.75			  10.09509			  0.01814			 0.01536
	83.00			  10.05549			  0.03400			 -0.13810
	83.25			  10.01098			  -0.08327			 -0.27308
	83.50			  10.06179			  -0.20333			 -0.19292
	83.75			  10.14334			  -0.22163			 -0.10642
	84.00			  10.12443			  -0.11655			 -0.03927
	84.25			  10.02888			  -0.12893			 0.00528
	84.50			  10.08513			  -0.12823			 -0.13264
	84.75			  10.00678			  -0.02403			 -0.20398
	85.00			  10.09494			  0.01901			 -0.09931
	85.25			  10.17213			  0.09934			 -0.08847
	85.50			  10.03907			  0.10439			 -0.10623
	85.75			  9.97908			  0.18594			 -0.05717
	86.00			  10.19508			  0.09917			 -0.03544
	86.25			  10.15298			  0.30356			 -0.23137
	86.50			  10.04872			  0.35061			 -0.12247
	86.75			  10.05907			  0.32778			 -0.06708
	87.00			  10.02125			  0.29938			 -0.10845
	87.25			  10.06490			  0.22254			 -0.06253
	87.50			  10.01612			  0.20285			 -0.00922
	87.75			  9.93776			  0.28073			 0.06908
	88.00			  9.90423			  0.30722			 0.01174
	88.25			  9.94694			  0.29502			 0.02294
	88.50			  9.93092			  0.39260			 0.13089
	88.75			  10.06327			  0.44784			 0.13141
	89.00			  10.11758			  0.39034			 0.14611
	89.25			  10.09712			  0.15981			 0.08214
	89.50			  10.13322			  0.22027			 0.05989
	89.75			  10.11128			  0.34399			 0.05946
	90.00			  10.04662			  0.49663			 -0.01635
	90.25			  10.14069			  0.50813			 0.03450
	90.50			  10.16870			  0.41630			 0.01756
	90.75			  10.17609			  0.35078			 -0.02889
	91.00			  10.21422			  0.14395			 -0.13267
	91.25			  10.32362			  0.09063			 -0.05607
	91.50			  10.35801			  0.04288			 -0.07816
	91.75			  10.25242			  0.03051			 -0.06188
	92.00			  10.16660			  0.21957			 0.00851
	92.25			  10.20006			  0.46195			 0.01050
	92.50			  10.17376			  0.33527			 -0.03166
	92.75			  10.20076			  0.18559			 0.07011
	93.00			  10.29343			  0.24763			 0.06039
	93.25			  10.28510			  0.27063			 0.06661
	93.50			  10.30806			  0.24588			 -0.08112
	93.75			  10.13213			  0.32064			 -0.09268
	94.00			  10.09883			  0.38163			 -0.04174
	94.25			  10.05043			  0.43146			 -0.14470
	94.50			  10.09774			  0.32046			 -0.05772
	94.75			  9.97293			  0.38075			 0.09485
	95.00			  10.00616			  0.36490			 0.22340
	95.25			  10.11291			  0.45917			 0.20921
	95.50			  10.06537			  0.40184			 0.17334
	95.75			  10.01098			  0.32778			 0.32005
	96.00			  10.11579			  0.24188			 0.22488
	96.25			  10.07424			  0.15022			 0.10423
	96.50			  10.04888			  0.08035			 -0.02396
	96.75			  10.21383			  -0.00713			 -0.07698
	97.00			  10.27771			  0.13489			 0.03512
	97.25			  10.21313			  0.10718			 0.11325
	97.50			  10.20457			  -0.00207			 -0.01460
	97.75			  10.24130			  -0.02107			 -0.11001
	98.00			  10.24815			  -0.02403			 -0.04475
	98.25			  10.22153			  -0.19026			 -0.03195
	98.50			  10.18014			  -0.38037			 -0.00455
	98.75			  10.11509			  -0.39030			 -0.09723
	99.00			  10.28588			  -0.29986			 -0.19177
	99.25			  10.27079			  -0.22180			 -0.16076
	99.50			  10.24231			  -0.20786			 -0.10864
	99.75			  10.35202			  -0.19845			 -0.02556
	100.00			  10.41940			  -0.10087			 -0.19811
	100.25			  10.42540			  -0.03901			 -0.27598
	100.50			  10.50079			  -0.00016			 -0.16602
	100.75			  10.47691			  -0.00103			 -0.02317
	101.00			  10.38563			  0.03609			 -0.01522
	101.25			  10.32868			  0.07442			 -0.04365
	101.50			  10.28083			  0.07390			 -0.15203
	101.75			  10.22776			  -0.05243			 -0.05107
	102.00			  10.36004			  0.09586			 -0.23018
	102.25			  10.32681			  0.21504			 -0.25643
	102.50			  10.10700			  0.11764			 -0.23417
	102.75			  10.03969			  -0.08397			 -0.20225
	103.00			  10.03347			  -0.22163			 -0.23726
	103.25			  10.12785			  -0.18591			 -0.24051
	103.50			  10.16769			  -0.14652			 -0.24626
	103.75			  10.26923			  -0.06114			 -0.22501
	104.00			  10.23118			  -0.06393			 -0.26090
	104.25			  10.11602			  -0.15071			 -0.14035
	104.50			  10.02794			  -0.08937			 -0.02125
	104.75			  10.01612			  -0.26066			 -0.02771
	105.00			  10.04623			  -0.37549			 -0.00474
	105.25			  9.87925			  -0.25944			 -0.03183
	105.50			  9.86921			  -0.28941			 -0.08383
	105.75			  10.01542			  -0.31677			 -0.01364
	106.00			  9.99550			  -0.41626			 -0.07182
	106.25			  10.01705			  -0.44013			 -0.08895
	106.50			  9.96632			  -0.43334			 -0.05595
	106.75			  10.11416			  -0.35318			 -0.01920
	107.00			  10.23040			  -0.37688			 0.07362
	107.25			  10.24317			  -0.49607			 0.06542
	107.50			  10.24503			  -0.52273			 -0.02051
	107.75			  10.26791			  -0.57988			 0.00162
	108.00			  10.27515			  -0.52674			 -0.08275
	108.25			  10.29966			  -0.47690			 -0.20898
	108.50			  10.19158			  -0.35249			 -0.22944
	108.75			  10.20792			  -0.45338			 -0.11230
	109.00			  10.21515			  -0.45355			 -0.15375
	109.25			  10.28604			  -0.29272			 -0.03860
	109.50			  10.26137			  -0.21884			 0.01737
	109.75			  10.26332			  -0.09791			 -0.05442
	110.00			  10.32385			  -0.12980			 -0.07217
	110.25			  10.24083			  -0.29011			 -0.10852
	110.50			  10.27437			  -0.21553			 -0.02451
	110.75			  10.28892			  -0.22110			 -0.07155
	111.00			  10.34548			  -0.01044			 -0.07457
	111.25			  10.30098			  -0.01131			 0.00698
	111.50			  10.22317			  0.00856			 -0.07792
	111.75			  10.21150			  -0.09390			 -0.03432
	112.00			  10.15151			  -0.23644			 -0.21501
	112.25			  10.07844			  -0.41626			 -0.26456
	112.50			  10.15882			  -0.14112			 -0.25198
	112.75			  10.02047			  -0.26937			 -0.25418
	113.00			  10.00950			  -0.23034			 -0.04310
	113.25			  10.19267			  -0.19479			 -0.04743
	113.50			  10.25491			  -0.23330			 -0.10972
	113.75			  10.29320			  -0.15384			 -0.10321
	114.00			  10.30596			  -0.07020			 -0.08163
	114.25			  10.26044			  -0.19235			 -0.22465
	114.50			  10.17633			  -0.24132			 -0.03102
	114.75			  10.17664			  -0.39814			 -0.12405
	115.00			  10.27538			  -0.53109			 -0.04968
	115.25			  10.22869			  -0.59347			 0.01344
	115.50			  10.11011			  -0.60463			 0.06889
	115.75			  10.19158			  -0.62832			 0.08257
	116.00			  10.24223			  -0.56141			 0.13804
	116.25			  10.22208			  -0.44763			 0.19013
	116.50			  10.11914			  -0.38525			 0.13555
	116.75			  10.16139			  -0.40912			 0.12385
	117.00			  10.25717			  -0.35318			 0.06781
	117.25			  10.28658			  -0.44536			 0.08655
	117.50			  10.32876			  -0.54085			 -0.02288
	117.75			  10.48391			  -0.39849			 0.03967
	118.00			  10.48025			  -0.35371			 -0.07076
	118.25			  10.50764			  -0.38368			 -0.04705
	118.50			  10.53176			  -0.36085			 -0.09457
	118.75			  10.40727			  -0.12858			 -0.04669
	119.00			  10.31887			  0.01326			 -0.03221
	119.25			  10.32354			  -0.04668			 0.00157
	119.50			  10.28526			  0.08087			 -0.09285
	119.75			  10.28440			  0.17845			 -0.09850
	120.00			  10.18123			  0.07739			 0.05790
	120.25			  10.25211			  0.02389			 -0.02391
	120.50			  10.31631			  0.07861			 -0.28509
	120.75			  10.20123			  0.05874			 -0.28316
	121.00			  10.16613			  -0.02978			 -0.33946
	121.25			  10.10684			  -0.04703			 -0.17057
	121.50			  10.17532			  -0.05626			 -0.25743
	121.75			  10.10062			  -0.02263			 -0.24683
	122.00			  10.03394			  -0.03466			 -0.18785
	122.25			  10.02833			  -0.02002			 -0.04303
	122.50			  9.99651			  -0.15907			 -0.06167
	122.75			  9.99596			  -0.12823			 -0.10369
	123.00			  9.97418			  -0.14060			 -0.02776
	123.25			  9.93348			  -0.35493			 0.03914
	123.50			  10.02125			  -0.32565			 -0.03724
	123.75			  10.05362			  -0.18730			 -0.03133
	124.00			  9.82852			  -0.04529			 -0.06267
	124.25			  9.88057			  0.06536			 -0.08964
	124.50			  9.96647			  0.03243			 -0.03351
	124.75			  10.11945			  -0.12910			 -0.11666
	125.00			  10.17096			  -0.14321			 -0.18297
	125.25			  10.16100			  -0.10958			 -0.15380
	125.50			  10.14839			  -0.07996			 -0.01458
	125.75			  10.24060			  -0.07369			 0.11428
	126.00			  10.26923			  -0.12649			 0.07810
	126.25			  10.33778			  -0.24759			 0.03460
	126.50			  10.25561			  -0.08902			 0.17920
	126.75			  10.21453			  -0.21866			 0.31882
	127.00			  10.23383			  -0.14043			 0.25412
	127.25			  10.40376			  -0.12910			 0.24220
	127.50			  10.38307			  -0.15733			 0.27219
	127.75			  10.49605			  -0.29708			 0.26202
	128.00			  10.40073			  -0.21047			 0.16984
	128.25			  10.30199			  -0.24114			 0.09528
	128.50			  10.40843			  -0.28575			 0.13919
	128.75			  10.44889			  -0.25752			 0.14757
	129.00			  10.51091			  -0.13903			 0.07245
	129.25			  10.57565			  -0.21466			 0.06152
	129.50			  10.37264			  -0.18242			 0.14445
	129.75			  10.37404			  -0.19462			 0.20708
	130.00			  10.49535			  -0.17475			 0.12778
	130.25			  10.45076			  -0.15332			 0.09497
	130.50			  10.48904			  -0.12056			 0.05159
	130.75			  10.33537			  -0.04424			 0.08382
	131.00			  10.27522			  -0.09669			 0.11945
	131.25			  10.37311			  -0.01967			 0.08442
	131.50			  10.31584			  -0.06219			 0.07128
	131.75			  10.27623			  0.03888			 0.08212
	132.00			  10.22527			  0.04550			 0.10531
	132.25			  10.15828			  -0.11969			 0.11060
	132.50			  10.27125			  -0.11568			 0.12878
	132.75			  10.28736			  0.13541			 0.05240
	133.00			  10.22628			  0.06815			 0.04893
	133.25			  10.21375			  0.20598			 0.08138
	133.50			  10.26908			  0.16207			 0.05003
	133.75			  10.24962			  0.13001			 0.13857
	134.00			  10.28931			  0.02354			 0.10289
	134.25			  10.24978			  0.10474			 0.02014
	134.50			  10.28339			  0.19082			 -0.10381
	134.75			  10.32650			  0.22445			 -0.07610
	135.00			  10.30285			  0.19692			 -0.05231
	135.25			  10.39450			  0.15859			 0.03957
	135.50			  10.51900			  0.18194			 -0.00682
	135.75			  10.51814			  0.08610			 0.05111
	136.00			  10.47691			  0.13332			 0.04869
	136.25			  10.46508			  0.09237			 -0.02413
	136.50			  10.34938			  0.07320			 -0.06500
	136.75			  10.34198			  0.01727			 0.05161
	137.00			  10.34603			  0.12966			 0.12596
	137.25			  10.34899			  0.11206			 0.14795
	137.50			  10.52966			  0.15911			 0.06728
	137.75			  10.62871			  0.27185			 0.17228
	138.00			  10.57954			  0.32499			 0.20543
	138.25			  10.62723			  0.15893			 0.13393
	138.50			  10.65843			  0.01257			 0.16621
	138.75			  10.50671			  -0.10767			 0.16487
	139.00			  10.47761			  -0.11289			 0.23773
	139.25			  10.57144			  -0.10418			 0.16176
	139.50			  10.60801			  -0.12021			 0.08698
	139.75			  10.54063			  -0.16604			 0.09638
	140.00			  10.55409			  -0.28993			 0.18389
	140.25			  10.43403			  -0.09582			 0.17561
	140.50			  10.44002			  -0.02629			 0.18657
	140.75			  10.48508			  -0.02560			 0.06470
	141.00			  10.55012			  -0.07334			 -0.04731
	141.25			  10.44819			  0.05264			 0.08408
	141.50			  10.41754			  0.16503			 -0.04238
	141.75			  10.41053			  0.27080			 0.06977
	142.00			  10.47558			  0.23543			 0.08195
	142.25			  10.39567			  0.13437			 0.01127
	142.50			  10.59105			  0.00908			 0.04678
	142.75			  10.54211			  -0.04076			 -0.01403
	143.00			  10.44516			  -0.02507			 -0.00553
	143.25			  10.49301			  -0.09460			 -0.01922
	143.50			  10.32891			  -0.11690			 0.00339
	143.75			  10.34370			  -0.21257			 0.11708
	144.00			  10.26293			  -0.42689			 0.20868
	144.25			  10.24519			  -0.38751			 0.14733
	144.50			  10.37046			  -0.34865			 0.08722
	144.75			  10.33288			  -0.30718			 0.07164
	145.00			  10.18917			  -0.34604			 -0.11374
	145.25			  10.18994			  -0.29986			 -0.14420
	145.50			  10.18847			  -0.46122			 -0.02259
	145.75			  10.07300			  -0.46418			 -0.05239
	146.00			  10.03067			  -0.44066			 -0.11194
	146.25			  9.93169			  -0.56176			 -0.09464
	146.50			  9.87559			  -0.48544			 -0.12262
	146.75			  9.90306			  -0.34308			 -0.17727
	147.00			  10.00009			  -0.35196			 -0.16021
	147.25			  10.02328			  -0.31711			 -0.13001
	147.50			  9.97745			  -0.31276			 -0.00101
	147.75			  9.86524			  -0.04302			 -0.08581
	148.00			  9.88034			  -0.24445			 -0.11230
	148.25			  9.95084			  0.00560			 -0.17732
	148.50			  9.96718			  -0.08031			 -0.05784
	148.75			  9.98803			  -0.20681			 -0.00994
	149.00			  9.87762			  -0.19601			 -0.06217
	149.25			  9.90781			  -0.32025			 -0.20244
	149.50			  9.94204			  -0.19845			 -0.24576
	149.75			  9.99986			  -0.22790			 -0.10194
	150.00			  9.96982			  -0.25526			 -0.04212
	150.25			  10.02966			  -0.26101			 -0.09139
	150.50			  10.09603			  -0.24288			 -0.21082
	150.75			  10.19274			  -0.21117			 0.00583
	151.00			  10.11229			  -0.24306			 0.03505
	151.25			  10.09455			  -0.32618			 -0.05614
	151.50			  10.18317			  -0.30439			 -0.02094
	151.75			  10.09221			  -0.24027			 -0.05576
	152.00			  10.00686			  -0.20786			 -0.03626
	152.25			  9.87769			  -0.10854			 -0.05081
	152.50			  9.91030			  -0.13659			 0.05912
	152.75			  9.97566			  -0.21117			 0.06685
	153.00			  10.01643			  -0.20019			 -0.02702
	153.25			  10.00694			  -0.28592			 0.04702
	153.50			  9.97270			  -0.28261			 0.12938
	153.75			  10.06584			  -0.23226			 0.17635
	154.00			  10.00491			  -0.22581			 0.09734
	154.25			  9.98453			  -0.25613			 0.17161
	154.50			  10.01868			  0.00019			 0.17341
	154.75			  9.99947			  -0.01985			 0.07623
	155.00			  9.92679			  -0.07717			 -0.01498
	155.25			  9.85933			  -0.04529			 -0.03116
	155.50			  9.84696			  -0.00120			 -0.05073
	155.75			  9.95426			  -0.03797			 0.05917
	156.00			  10.01308			  -0.03100			 0.02407
	156.25			  10.22278			  -0.04703			 -0.06035
	156.50			  10.22161			  -0.13067			 -0.07342
	156.75			  10.14614			  -0.16012			 0.06908
	157.00			  10.04841			  -0.13642			 0.09746
	157.25			  10.08794			  0.01257			 0.06515
	157.50			  10.04172			  -0.13642			 0.08121
	157.75			  9.99822			  -0.14530			 0.12208
	158.00			  9.77919			  -0.08536			 -0.05588
	158.25			  9.73515			  0.01291			 -0.06074
	158.50			  9.76051			  0.01553			 0.05673
	158.75			  9.77646			  0.01239			 0.00808
	159.00			  9.70146			  0.12147			 0.10602
	159.25			  9.69757			  0.04445			 0.18683
	159.50			  9.85552			  0.03940			 0.11191
	159.75			  9.73701			  0.05177			 0.12979
	160.00			  9.86766			  0.11589			 0.12093
	160.25			  9.86696			  0.26209			 0.10141
	160.50			  9.92749			  0.15301			 -0.04719
	160.75			  9.93185			  0.13227			 -0.05538
	161.00			  9.97005			  0.13820			 -0.09536
	161.25			  9.98211			  0.15249			 -0.11953
	161.50			  10.05214			  0.14987			 -0.05932
	161.75			  9.95426			  0.00647			 -0.10268
	162.00			  9.93325			  0.10805			 -0.13666
	162.25			  9.87723			  0.03034			 -0.12379
	162.50			  9.99550			  0.02790			 -0.14614
	162.75			  9.93675			  0.07878			 -0.13884
	163.00			  9.94259			  -0.08153			 0.06432
	163.25			  9.89839			  -0.12753			 0.14788
	163.50			  9.93154			  -0.15018			 0.12309
	163.75			  9.97706			  -0.00399			 0.19978
	164.00			  9.91870			  0.06275			 0.14053
	164.25			  10.03650			  -0.06881			 0.02696
	164.50			  10.01923			  -0.23923			 0.13474
	164.75			  9.96632			  -0.21239			 -0.05160
	165.00			  9.85879			  -0.28906			 -0.18835