--------------TurbSim v2.00.* User Time Series Input File-----------------------
     Time series input from low-res turbsim run
--------------------------------------------------------------------------------
          3 nComp - Number of velocity components in the file
          1 nPoints - Number of time series points contained in this file (-)
          1 RefPtID - Index of the reference point (1-nPoints)
     Pointyi Pointzi ! nPoints listed in order of increasing height
       (m)     (m)
       0.69425   94.00000
--------Time Series-------------------------------------------------------------
Elapsed Time         Point01u             Point01v           Point01w
         (s)            (m/s)                (m/s)              (m/s)
	0.00			  10.41442			  0.15580			 -0.04150
	0.25			  10.38431			  0.32499			 -0.04224
	0.50			  10.25655			  0.24031			 -0.14142
	0.75			  10.29857			  0.34329			 -0.16181
	1.00			  10.21119			  0.33440			 -0.18222
	1.25			  10.24962			  0.21452			 -0.28426
	1.50			  10.29794			  0.18769			 -0.14399
	1.75			  10.27001			  0.18559			 -0.12331
	2.00			  10.23741			  0.28439			 -0.10276
	2.25			  10.37560			  0.19779			 -0.13489
	2.50			  10.26402			  0.22759			 -0.17665
	2.75			  10.16154			  0.12374			 -0.12802
	3.00			  10.17640			  0.15040			 -0.19596
	3.25			  10.19905			  0.14395			 -0.15047
	3.50			  10.17477			  0.26401			 -0.07916
	3.75			  10.26721			  0.12391			 -0.04442
	4.00			  10.22939			  0.08749			 -0.14925
	4.25			  10.26744			  -0.09408			 -0.16767
	4.50			  10.29444			  -0.11917			 -0.17856
	4.75			  10.23920			  0.02825			 -0.02908
	5.00			  10.17539			  0.18594			 -0.02817
	5.25			  10.20045			  0.14935			 -0.14734
	5.50			  10.23795			  -0.09303			 -0.07287
	5.75			  10.14917			  -0.10470			 -0.13130
	6.00			  10.16045			  0.06641			 -0.17452
	6.25			  10.26542			  0.07355			 -0.20809
	6.50			  10.24838			  0.08540			 -0.19194
	6.75			  10.23391			  -0.03501			 -0.22113
	7.00			  10.31125			  0.10039			 -0.26772
	7.25			  10.14186			  0.11189			 -0.17191
	7.50			  10.10109			  0.08958			 -0.16854
	7.75			  10.00880			  0.12356			 -0.13583
	8.00			  10.14404			  0.37152			 -0.01659
	8.25			  10.23227			  0.19605			 0.15173
	8.50			  10.31623			  0.18019			 0.12706
	8.75			  10.25873			  0.26627			 0.09306
	9.00			  10.12046			  0.39835			 -0.00723
	9.25			  10.21391			  0.35828			 -0.03829
	9.50			  10.29149			  0.23177			 -0.03762
	9.75			  10.18636			  0.35235			 -0.06468
	10.00			  10.26557			  0.21295			 -0.01869
	10.25			  10.19780			  0.24031			 0.04063
	10.50			  10.22457			  0.17183			 0.03936
	10.75			  10.12879			  0.11764			 -0.00635
	11.00			  10.13485			  0.03923			 0.10746
	11.25			  10.10575			  0.04027			 -0.13386
	11.50			  10.04296			  -0.06811			 -0.11099
	11.75			  10.03254			  -0.00695			 -0.01778
	12.00			  10.14559			  -0.12771			 -0.07363
	12.25			  10.10412			  -0.01967			 0.01761
	12.50			  10.04117			  -0.01009			 -0.06521
	12.75			  10.10536			  -0.05696			 -0.13408
	13.00			  10.20753			  0.03696			 -0.04284
	13.25			  10.13657			  -0.02943			 -0.04609
	13.50			  10.02561			  -0.08118			 -0.13434
	13.75			  9.98375			  -0.12579			 -0.07241
	14.00			  9.97286			  -0.09408			 -0.02913
	14.25			  9.99036			  -0.06759			 -0.12056
	14.50			  9.87069			  0.01953			 -0.18301
	14.75			  9.91535			  0.05578			 -0.22936
	15.00			  10.06545			  -0.05522			 -0.17038
	15.25			  10.07712			  -0.04058			 -0.07966
	15.50			  10.10147			  0.08732			 -0.00084
	15.75			  10.08996			  0.21818			 -0.11692
	16.00			  10.18909			  0.12496			 -0.07789
	16.25			  10.19850			  0.03609			 -0.18780
	16.50			  10.16053			  0.09028			 -0.29194
	16.75			  10.08140			  0.13942			 -0.29512
	17.00			  10.01075			  0.10283			 -0.28541
	17.25			  9.90150			  0.03086			 -0.45798
	17.50			  9.96492			  0.01169			 -0.34494
	17.75			  9.98546			  -0.07874			 -0.16861
	18.00			  10.03744			  0.04933			 -0.18900
	18.25			  10.00359			  0.07791			 -0.23042
	18.50			  10.08583			  0.00054			 -0.19254
	18.75			  10.21111			  0.02929			 -0.21194
	19.00			  10.09844			  -0.07665			 -0.28459
	19.25			  10.08996			  -0.06707			 -0.25391
	19.50			  10.19469			  0.01135			 -0.22381
	19.75			  10.12793			  -0.07264			 -0.10106
	20.00			  9.99705			  0.06414			 -0.17289
	20.25			  10.06949			  0.07826			 -0.18280
	20.50			  9.99161			  0.17862			 -0.20768
	20.75			  9.99861			  0.17287			 -0.26483
	21.00			  10.04553			  0.16434			 -0.10788
	21.25			  9.83739			  0.23822			 -0.08814
	21.50			  9.86089			  0.34712			 -0.09747
	21.75			  9.88586			  0.24832			 -0.04152
	22.00			  9.91644			  0.38633			 -0.10771
	22.25			  10.09922			  0.43860			 -0.01187
	22.50			  10.12303			  0.28736			 0.10009
	22.75			  10.09424			  0.24693			 0.07461
	23.00			  10.16240			  0.18072			 0.03086
	23.25			  10.24223			  0.21225			 0.01562
	23.50			  10.18473			  0.18472			 -0.06567
	23.75			  10.09735			  0.08540			 -0.10031
	24.00			  10.21858			  0.01710			 -0.05138
	24.25			  10.23367			  0.02546			 -0.02843
	24.50			  10.29016			  0.17409			 -0.00345
	24.75			  10.32292			  0.23090			 -0.00776
	25.00			  10.42283			  0.28631			 0.01277
	25.25			  10.42648			  0.35427			 0.02129
	25.50			  10.22566			  0.26331			 0.09205
	25.75			  10.25997			  0.19326			 0.09789
	26.00			  10.30067			  0.18769			 0.03620
	26.25			  10.29895			  0.21992			 0.11117
	26.50			  10.33031			  0.20197			 0.10758
	26.75			  10.38019			  0.28300			 0.03156
	27.00			  10.32907			  0.14831			 0.04122
	27.25			  10.40641			  0.04236			 0.10002
	27.50			  10.37692			  -0.02019			 0.14326
	27.75			  10.28666			  -0.15559			 0.19069
	28.00			  10.13960			  -0.09007			 0.15202
	28.25			  10.30829			  -0.04424			 0.07793
	28.50			  10.34198			  -0.11202			 0.13134
	28.75			  10.31724			  -0.11220			 -0.01075
	29.00			  10.27522			  -0.09756			 -0.08892
	29.25			  10.35747			  0.07721			 -0.00120
	29.50			  10.34261			  -0.02664			 0.00224
	29.75			  10.36649			  -0.02542			 -0.03693
	30.00			  10.50531			  -0.00660			 -0.03875
	30.25			  10.45317			  -0.02664			 0.03335
	30.50			  10.46539			  0.09568			 0.06286
	30.75			  10.34564			  0.15946			 0.04371
	31.00			  10.30222			  0.10945			 -0.04245
	31.25			  10.35856			  0.03452			 -0.03693
	31.50			  10.25499			  0.08157			 0.05620
	31.75			  10.20488			  0.12234			 -0.09082
	32.00			  10.25445			  0.10335			 -0.06892
	32.25			  10.32308			  0.03435			 -0.02870
	32.50			  10.31887			  -0.05870			 -0.03630
	32.75			  10.45294			  -0.11115			 -0.14233
	33.00			  10.49542			  -0.17371			 0.08224
	33.25			  10.46640			  -0.09913			 0.09803
	33.50			  10.47442			  -0.13520			 0.14907
	33.75			  10.47761			  -0.03884			 0.13862
	34.00			  10.43878			  -0.09268			 0.10251
	34.25			  10.38136			  -0.14409			 0.04070
	34.50			  10.41442			  -0.28993			 -0.10632
	34.75			  10.32074			  -0.39013			 -0.07119
	35.00			  10.33980			  -0.27843			 -0.10577
	35.25			  10.37217			  -0.30683			 -0.01525
	35.50			  10.37785			  -0.23923			 0.05927
	35.75			  10.26978			  -0.04128			 0.09361
	36.00			  10.19547			  -0.13067			 0.13543
	36.25			  10.14069			  -0.11551			 0.22196
	36.50			  10.11073			  -0.11760			 0.26307
	36.75			  10.19197			  -0.23104			 0.23929
	37.00			  10.20029			  -0.22616			 0.19387
	37.25			  10.27896			  -0.22337			 0.11088
	37.50			  10.41707			  -0.26711			 0.21440
	37.75			  10.28238			  -0.27826			 0.27030
	38.00			  10.19905			  -0.33837			 0.09564
	38.25			  10.27553			  -0.41853			 -0.02511
	38.50			  10.27055			  -0.52343			 -0.05243
	38.75			  10.21866			  -0.44658			 0.01074
	39.00			  10.27904			  -0.44031			 0.02754
	39.25			  10.15890			  -0.41121			 0.00449
	39.50			  10.05541			  -0.45878			 -0.00666
	39.75			  10.19251			  -0.41783			 0.02117
	40.00			  10.13462			  -0.36364			 0.04869
	40.25			  10.18940			  -0.41260			 0.09612
	40.50			  10.24075			  -0.33210			 0.10471
	40.75			  10.16201			  -0.38350			 0.08884
	41.00			  10.01433			  -0.21500			 0.04355
	41.25			  10.09260			  -0.16325			 0.11483
	41.50			  10.09346			  -0.07264			 0.14792
	41.75			  10.02180			  -0.15837			 0.07647
	42.00			  10.05821			  -0.19305			 0.18260
	42.25			  10.12840			  -0.40511			 0.15874
	42.50			  10.04934			  -0.53458			 0.10162
	42.75			  10.03822			  -0.30509			 0.14496
	43.00			  10.05813			  -0.18765			 0.19100
	43.25			  10.12132			  -0.19845			 0.15675
	43.50			  10.14030			  -0.16447			 0.08155
	43.75			  10.21484			  -0.27582			 0.09368
	44.00			  10.26200			  -0.26362			 0.14089
	44.25			  10.26876			  -0.18608			 0.21454
	44.50			  10.28160			  -0.25142			 0.20846
	44.75			  10.22830			  -0.17109			 0.18243
	45.00			  10.28324			  -0.12248			 -0.00661
	45.25			  10.29265			  -0.28680			 -0.11692
	45.50			  10.25678			  -0.32199			 -0.13965
	45.75			  10.18870			  -0.26745			 0.02823
	46.00			  10.06770			  -0.18399			 0.13687
	46.25			  10.10194			  -0.03361			 0.25438
	46.50			  10.15236			  -0.04598			 0.25615
	46.75			  10.08949			  0.00141			 0.25989
	47.00			  10.10731			  0.08366			 0.29418
	47.25			  10.16302			  0.07878			 0.15690
	47.50			  10.26192			  0.12408			 0.16824
	47.75			  10.23492			  -0.11115			 0.12902
	48.00			  10.13073			  -0.10122			 0.12907
	48.25			  10.15135			  -0.13468			 0.18722
	48.50			  10.18170			  -0.24097			 0.16558
	48.75			  10.16964			  -0.13833			 0.05108
	49.00			  10.30386			  -0.20194			 0.16822
	49.25			  10.36727			  -0.03762			 0.20112
	49.50			  10.42026			  -0.01619			 0.21320
	49.75			  10.60934			  0.01378			 0.19463
	50.00			  10.61774			  -0.05487			 0.21129
	50.25			  10.65369			  -0.05243			 0.17614
	50.50			  10.54546			  -0.04633			 0.35355
	50.75			  10.48562			  0.01361			 0.42969
	51.00			  10.50414			  0.01466			 0.26027
	51.25			  10.52281			  -0.09530			 0.28611
	51.50			  10.55658			  -0.17057			 0.11452
	51.75			  10.53246			  -0.05888			 0.13555
	52.00			  10.40462			  -0.04267			 0.07185
	52.25			  10.25390			  -0.07142			 0.03950
	52.50			  10.38579			  -0.07212			 0.04422
	52.75			  10.31693			  -0.13833			 0.17377
	53.00			  10.21749			  0.02267			 0.07599
	53.25			  10.28176			  -0.09808			 -0.01111
	53.50			  10.16551			  -0.13258			 0.11627
	53.75			  10.17882			  -0.16517			 0.21481
	54.00			  10.17485			  -0.18817			 0.16592
	54.25			  10.21725			  -0.09669			 -0.09089
	54.50			  10.37575			  -0.02925			 -0.05227
	54.75			  10.27406			  -0.05557			 -0.13635
	55.00			  10.18170			  -0.11377			 -0.11340
	55.25			  10.17166			  -0.17806			 -0.07332
	55.50			  10.07160			  -0.03187			 -0.04305
	55.75			  9.95076			  0.04079			 0.05668
	56.00			  9.97239			  -0.03657			 0.11619
	56.25			  10.13384			  0.07268			 0.00031
	56.50			  10.09634			  0.06205			 -0.04540
	56.75			  10.02172			  0.10195			 -0.06193
	57.00			  9.96710			  0.07721			 -0.16595
	57.25			  9.99067			  -0.02891			 -0.20622
	57.50			  10.12894			  -0.01288			 -0.18557
	57.75			  10.04506			  0.15005			 -0.21101
	58.00			  10.14528			  0.04829			 -0.19213
	58.25			  9.97783			  0.04166			 -0.22893
	58.50			  10.07206			  0.04707			 -0.26990
	58.75			  10.14816			  0.14412			 -0.27047
	59.00			  10.10054			  0.06170			 -0.15597
	59.25			  10.08233			  -0.02734			 -0.13803
	59.50			  10.05035			  -0.19357			 -0.21391
	59.75			  10.08762			  -0.13311			 -0.21855
	60.00			  10.02553			  -0.01915			 -0.05796
	60.25			  10.01036			  -0.02333			 -0.18897
	60.50			  10.01371			  -0.05992			 -0.04054
	60.75			  9.99441			  -0.14809			 -0.07057
	61.00			  10.08552			  0.05613			 -0.04183
	61.25			  10.14497			  0.02633			 0.01349
	61.50			  10.08591			  -0.05104			 -0.03999
	61.75			  10.12801			  -0.16796			 -0.02614
	62.00			  9.99581			  -0.21431			 -0.07859
	62.25			  9.91107			  -0.32862			 0.01883
	62.50			  9.98772			  -0.44327			 -0.06997
	62.75			  9.87411			  -0.33994			 -0.14355
	63.00			  9.69834			  -0.26083			 -0.04135
	63.25			  9.66084			  -0.15628			 -0.10230
	63.50			  9.66955			  -0.23574			 -0.07045
	63.75			  9.73484			  -0.28976			 0.06862
	64.00			  9.69453			  -0.37096			 0.06558
	64.25			  9.77195			  -0.27547			 0.04850
	64.50			  9.86026			  -0.33820			 0.01378
	64.75			  9.82790			  -0.52778			 0.02033
	65.00			  9.64458			  -0.43404			 0.04529
	65.25			  9.57929			  -0.44345			 -0.04399
	65.50			  9.70005			  -0.41522			 0.01935
	65.75			  9.74503			  -0.41104			 -0.02944
	66.00			  9.79304			  -0.29272			 -0.14482
	66.25			  9.96546			  -0.27739			 -0.04420
	66.50			  9.94025			  -0.33036			 -0.03779
	66.75			  9.89979			  -0.30596			 -0.09323
	67.00			  9.90290			  -0.26292			 -0.03798
	67.25			  9.83467			  -0.13015			 -0.00060
	67.50			  9.83770			  -0.04128			 -0.06466
	67.75			  9.86618			  -0.17075			 -0.15521
	68.00			  9.86307			  -0.19497			 -0.14932
	68.25			  9.90547			  0.03783			 -0.14884
	68.50			  9.82751			  0.19779			 -0.09302
	68.75			  9.89092			  0.25617			 -0.19242
	69.00			  9.85871			  0.17740			 -0.19579
	69.25			  9.92002			  0.10248			 -0.25731
	69.50			  9.83716			  0.10579			 -0.27184
	69.75			  9.88820			  0.00316			 -0.24568
	70.00			  9.97698			  0.03679			 -0.03547
	70.25			  10.07541			  -0.00573			 -0.00170
	70.50			  10.08778			  -0.01200			 -0.07318
	70.75			  10.05207			  -0.10993			 0.06140
	71.00			  10.06101			  -0.06027			 -0.05195
	71.25			  10.07214			  0.05473			 -0.03858
	71.50			  10.08770			  0.08801			 -0.08304
	71.75			  10.12544			  0.22672			 -0.15353
	72.00			  10.09206			  0.21992			 -0.01338
	72.25			  10.07510			  0.13262			 -0.01656
	72.50			  10.01705			  0.23491			 0.04338
	72.75			  9.85202			  0.05578			 -0.00864
	73.00			  9.94119			  0.02058			 -0.08651
	73.25			  9.86789			  -0.07909			 -0.09283
	73.50			  9.93473			  -0.11551			 -0.14174
	73.75			  9.98328			  -0.06829			 -0.18026
	74.00			  9.99861			  -0.16656			 -0.24777
	74.25			  9.86719			  -0.35231			 -0.22144
	74.50			  9.87240			  -0.30178			 -0.11934
	74.75			  9.92586			  -0.30997			 -0.07739
	75.00			  10.02701			  -0.40232			 -0.06727
	75.25			  10.01075			  -0.31764			 0.02234
	75.50			  9.93123			  -0.17928			 0.00914
	75.75			  10.00616			  -0.28889			 0.01469
	76.00			  10.06506			  -0.17545			 0.04783
	76.25			  10.00110			  -0.23975			 0.20406
	76.50			  9.96072			  -0.12579			 0.15580
	76.75			  9.96500			  -0.08867			 0.23905
	77.00			  9.92897			  -0.18556			 0.10107
	77.25			  9.99900			  -0.31032			 0.10485
	77.50			  10.05891			  -0.25351			 0.23601
	77.75			  10.03806			  -0.26153			 0.23208
	78.00			  10.17500			  -0.28958			 0.13134
	78.25			  10.25569			  -0.27861			 0.06362
	78.50			  10.19399			  -0.16970			 0.06824
	78.75			  10.18473			  -0.28157			 -0.00927
	79.00			  10.16287			  -0.24410			 0.06310
	79.25			  10.10879			  -0.32008			 0.05338
	79.50			  10.13797			  -0.34430			 0.05429
	79.75			  10.26799			  -0.21657			 -0.08416
	80.00			  10.17617			  -0.42707			 -0.14209
	80.25			  10.17687			  -0.52970			 -0.12008
	80.50			  10.13026			  -0.46017			 -0.02463
	80.75			  10.01090			  -0.52395			 -0.11862
	81.00			  10.01744			  -0.32722			 -0.11381
	81.25			  10.12381			  -0.28000			 -0.11192
	81.50			  10.12015			  -0.30265			 -0.06098
	81.75			  10.06545			  -0.37984			 0.01576
	82.00			  9.97550			  -0.30614			 -0.03848
	82.25			  10.00950			  -0.25229			 0.06776
	82.50			  9.94477			  -0.19218			 0.17791
	82.75			  9.90820			  -0.24114			 0.05546
	83.00			  9.87653			  -0.23487			 0.05960
	83.25			  9.94196			  -0.26589			 -0.17153
	83.50			  10.06514			  -0.27251			 -0.07648
	83.75			  9.92983			  -0.25996			 -0.12841
	84.00			  10.02600			  -0.19078			 -0.08500
	84.25			  10.14396			  -0.13328			 -0.13551
	84.50			  10.19368			  -0.04964			 -0.10721
	84.75			  10.20146			  -0.09286			 -0.12329
	85.00			  10.08288			  -0.13032			 -0.12458
	85.25			  10.00764			  -0.14896			 -0.08366
	85.50			  9.94640			  0.04393			 -0.06370
	85.75			  10.00413			  0.04550			 -0.08876
	86.00			  10.01736			  -0.00956			 -0.04351
	86.25			  9.95122			  0.02546			 0.02495
	86.50			  9.73834			  -0.00625			 -0.05664
	86.75			  9.71266			  -0.01758			 -0.03465
	87.00			  9.73336			  -0.17249			 0.04714
	87.25			  9.83000			  -0.24376			 -0.08342
	87.50			  9.76285			  -0.35423			 -0.15286
	87.75			  9.73406			  -0.32705			 -0.07473
	88.00			  9.74620			  -0.23713			 -0.17375
	88.25			  9.78043			  -0.29620			 -0.16777
	88.50			  9.79802			  -0.13938			 -0.08021
	88.75			  9.76261			  -0.29237			 -0.08347
	89.00			  9.66808			  -0.37653			 0.01696
	89.25			  9.60435			  -0.40476			 0.05175
	89.50			  9.68333			  -0.23365			 0.05391
	89.75			  9.70682			  -0.22860			 0.02443
	90.00			  9.78417			  -0.43822			 0.19954
	90.25			  9.82152			  -0.40441			 0.14469
	90.50			  9.86229			  -0.22424			 0.14718
	90.75			  9.75989			  -0.15750			 0.23780
	91.00			  9.73499			  -0.12718			 0.22952
	91.25			  9.80027			  -0.12736			 0.16913
	91.50			  9.78930			  -0.23539			 0.13079
	91.75			  9.79942			  -0.16743			 -0.14042
	92.00			  9.88392			  -0.12300			 -0.08438
	92.25			  9.92983			  -0.17789			 -0.13023
	92.50			  9.92640			  -0.21954			 -0.04006
	92.75			  9.96406			  -0.24010			 -0.04609
	93.00			  9.93854			  -0.07648			 -0.10426
	93.25			  9.96686			  -0.08571			 -0.04535
	93.50			  10.11400			  -0.05382			 0.01574
	93.75			  9.95924			  -0.05051			 0.00772
	94.00			  9.96087			  -0.06933			 -0.03083
	94.25			  10.04452			  -0.24463			 -0.03329
	94.50			  10.03557			  -0.18730			 -0.15762
	94.75			  10.14839			  -0.16987			 -0.18727
	95.00			  10.08218			  -0.13084			 -0.09342
	95.25			  10.06164			  -0.19653			 -0.15801
	95.50			  10.12793			  -0.11307			 -0.08957
	95.75			  10.17648			  -0.20141			 -0.10151
	96.00			  10.26557			  -0.33872			 -0.13401
	96.25			  10.37241			  -0.28749			 -0.12525
	96.50			  10.32953			  -0.23957			 -0.12223
	96.75			  10.19197			  -0.26554			 0.03204
	97.00			  10.20706			  -0.17197			 -0.04403
	97.25			  10.21383			  -0.14269			 -0.04064
	97.50			  10.15571			  -0.06759			 0.12127
	97.75			  9.93372			  -0.14548			 0.10344
	98.00			  9.86252			  0.01378			 -0.03116
	98.25			  9.75219			  -0.01357			 -0.08505
	98.50			  9.80697			  -0.10105			 -0.19141
	98.75			  9.77537			  -0.05504			 -0.08629
	99.00			  9.89582			  -0.19775			 -0.06528
	99.25			  9.79047			  -0.24654			 -0.17404
	99.50			  9.64030			  -0.02856			 -0.08842
	99.75			  9.80984			  0.00716			 -0.14267
	100.00			  9.89886			  -0.15227			 0.04582
	100.25			  9.94337			  -0.11864			 -0.03724
	100.50			  9.76853			  -0.04720			 0.03318
	100.75			  9.68138			  0.00821			 0.08444
	101.00			  9.70721			  -0.11185			 0.15738
	101.25			  9.86392			  -0.20281			 0.03996
	101.50			  9.71678			  -0.09233			 0.02687
	101.75			  9.68348			  -0.04319			 -0.00041
	102.00			  9.79739			  -0.01741			 -0.00632
	102.25			  9.67928			  -0.05191			 0.03261
	102.50			  9.80385			  -0.05138			 0.07540
	102.75			  9.89948			  -0.06114			 0.10208
	103.00			  9.88376			  -0.14548			 0.08099
	103.25			  9.83505			  -0.15924			 0.09820
	103.50			  9.88439			  -0.11864			 -0.02771
	103.75			  9.88540			  -0.20368			 -0.02434
	104.00			  9.80237			  -0.17928			 0.10765
	104.25			  9.81420			  -0.33924			 0.00782
	104.50			  9.76012			  -0.16064			 0.09681
	104.75			  9.81062			  -0.11446			 0.02002
	105.00			  9.99114			  -0.11533			 -0.05925
	105.25			  9.96889			  -0.11812			 -0.11407
	105.50			  10.10404			  -0.21222			 -0.13934
	105.75			  10.16131			  -0.31555			 0.01124
	106.00			  10.02195			  -0.32635			 0.08384
	106.25			  9.91683			  -0.28993			 0.15407
	106.50			  9.96577			  -0.27739			 0.09507
	106.75			  10.04716			  -0.19723			 0.11124
	107.00			  10.11976			  -0.18765			 0.21225
	107.25			  10.03674			  -0.22912			 0.19861
	107.50			  9.93099			  -0.21187			 0.12739
	107.75			  10.05953			  -0.26867			 0.09612
	108.00			  10.15407			  -0.43038			 0.01978
	108.25			  10.03604			  -0.55113			 0.02620
	108.50			  10.20512			  -0.56943			 -0.05796
	108.75			  10.21329			  -0.66126			 -0.09869
	109.00			  10.09852			  -0.59173			 -0.07679
	109.25			  10.16481			  -0.45529			 -0.00651
	109.50			  10.16823			  -0.34831			 -0.04688
	109.75			  10.12840			  -0.38072			 -0.04592
	110.00			  9.99962			  -0.39135			 0.10562
	110.25			  10.07144			  -0.35022			 0.08478
	110.50			  10.04249			  -0.41016			 -0.02369
	110.75			  10.03160			  -0.36922			 -0.04389
	111.00			  9.93916			  -0.35632			 0.14008
	111.25			  9.96694			  -0.35928			 0.23366
	111.50			  10.08117			  -0.37375			 0.18784
	111.75			  10.11369			  -0.35040			 0.17188
	112.00			  9.94796			  -0.46348			 0.06793
	112.25			  10.10070			  -0.42010			 0.00866
	112.50			  10.01612			  -0.36172			 0.03271
	112.75			  9.92765			  -0.35127			 0.04309
	113.00			  9.92236			  -0.28105			 0.07269
	113.25			  10.03977			  -0.41766			 0.02608
	113.50			  9.97394			  -0.43961			 -0.12465
	113.75			  10.03183			  -0.47411			 -0.07217
	114.00			  10.00888			  -0.54364			 -0.09524
	114.25			  9.92990			  -0.58598			 -0.11199
	114.50			  9.97192			  -0.50217			 -0.00776
	114.75			  9.92850			  -0.44310			 0.00586
	115.00			  9.96507			  -0.41121			 0.04292
	115.25			  9.83669			  -0.37253			 0.13194
	115.50			  9.85373			  -0.30178			 0.05137
	115.75			  9.83505			  -0.27721			 0.01095
	116.00			  9.76596			  -0.33437			 -0.04289
	116.25			  9.86937			  -0.24620			 -0.08732
	116.50			  9.87583			  -0.30875			 0.02830
	116.75			  9.74962			  -0.36800			 -0.02355
	117.00			  9.83389			  -0.37636			 -0.11013
	117.25			  9.95262			  -0.34743			 -0.12932
	117.50			  10.00670			  -0.48317			 0.00720
	117.75			  10.11781			  -0.50548			 -0.07024
	118.00			  10.07829			  -0.32565			 -0.05703
	118.25			  10.09891			  -0.34290			 -0.10340
	118.50			  10.18325			  -0.40372			 -0.02269
	118.75			  10.16769			  -0.40128			 0.02909
	119.00			  10.02911			  -0.23295			 0.09624
	119.25			  9.94982			  -0.25020			 -0.00771
	119.50			  10.12622			  -0.15942			 -0.03384
	119.75			  10.19695			  -0.06689			 -0.01293
	120.00			  10.08109			  0.03469			 0.21804
	120.25			  10.07517			  -0.02734			 0.16568
	120.50			  10.04981			  -0.12509			 0.18812
	120.75			  10.02437			  -0.00852			 0.15821
	121.00			  10.00608			  0.03400			 0.08987
	121.25			  9.98126			  -0.01131			 0.08430
	121.50			  9.96243			  -0.08275			 0.03747
	121.75			  9.88750			  -0.15088			 0.01856
	122.00			  9.93488			  -0.13781			 -0.06019
	122.25			  9.92640			  -0.25055			 -0.13870
	122.50			  9.93932			  -0.19741			 -0.22156
	122.75			  10.02779			  -0.30614			 -0.19725
	123.00			  10.06685			  -0.29777			 -0.19869
	123.25			  10.16341			  -0.19200			 -0.01034
	123.50			  10.21344			  -0.25299			 -0.08845
	123.75			  10.25733			  -0.15593			 -0.10510
	124.00			  10.21617			  -0.20734			 -0.13224
	124.25			  10.30456			  -0.04215			 -0.14958
	124.50			  10.12194			  -0.02350			 0.02194
	124.75			  10.15501			  0.07460			 -0.08811
	125.00			  10.19212			  0.13750			 -0.10496
	125.25			  9.97052			  0.10126			 -0.19340
	125.50			  9.91551			  0.02006			 -0.17292
	125.75			  9.74946			  -0.16238			 -0.15617
	126.00			  9.80977			  -0.06480			 -0.16071
	126.25			  9.81373			  -0.10436			 -0.27983
	126.50			  9.86688			  -0.11621			 -0.26332
	126.75			  9.88804			  -0.13659			 -0.22056
	127.00			  9.93901			  -0.18904			 -0.09737
	127.25			  9.81397			  -0.26711			 -0.12855
	127.50			  9.73468			  -0.32426			 -0.14458
	127.75			  9.82486			  -0.25578			 -0.17677
	128.00			  9.73912			  -0.12213			 -0.03671
	128.25			  9.85466			  -0.23661			 -0.02207
	128.50			  9.87567			  -0.30492			 -0.02221
	128.75			  9.89403			  -0.24672			 -0.08775
	129.00			  9.90750			  -0.26815			 -0.04513
	129.25			  9.77382			  -0.25665			 -0.12649
	129.50			  9.77833			  -0.20019			 -0.06272
	129.75			  9.77499			  -0.40650			 -0.14075
	130.00			  9.76604			  -0.57779			 -0.13946
	130.25			  9.89567			  -0.64610			 0.09581
	130.50			  9.92936			  -0.60707			 -0.07232
	130.75			  9.92189			  -0.62937			 -0.00130
	131.00			  9.89816			  -0.67694			 -0.00056
	131.25			  9.96632			  -0.68617			 -0.01982
	131.50			  9.92920			  -0.69768			 0.00686
	131.75			  9.92088			  -0.78184			 -0.10185
	132.00			  9.83972			  -0.62118			 -0.19038
	132.25			  9.89333			  -0.67433			 -0.15868
	132.50			  9.80549			  -0.73618			 -0.17354
	132.75			  9.93177			  -0.62606			 -0.22896
	133.00			  9.91084			  -0.62188			 -0.20108
	133.25			  9.97542			  -0.59121			 -0.14817
	133.50			  10.02110			  -0.62989			 -0.13537
	133.75			  9.86423			  -0.60515			 -0.06528
	134.00			  9.88773			  -0.49119			 0.02084
	134.25			  9.66971			  -0.54190			 0.05726
	134.50			  9.58910			  -0.48230			 0.01698
	134.75			  9.72861			  -0.37984			 0.07511
	135.00			  9.69414			  -0.35127			 0.13981
	135.25			  9.67414			  -0.47830			 0.10581
	135.50			  9.70737			  -0.27181			 0.02249
	135.75			  9.64108			  -0.39466			 -0.05772
	136.00			  9.75670			  -0.43160			 -0.14757
	136.25			  9.84229			  -0.18451			 -0.25638
	136.50			  9.76394			  -0.25508			 -0.26595
	136.75			  9.75911			  -0.20072			 -0.19038
	137.00			  9.67617			  -0.24288			 -0.31572
	137.25			  9.54187			  -0.26432			 -0.37327
	137.50			  9.47713			  -0.44170			 -0.49600
	137.75			  9.51954			  -0.34726			 -0.37200
	138.00			  9.55035			  -0.29725			 -0.25595
	138.25			  9.47752			  -0.33280			 -0.21486
	138.50			  9.45332			  -0.39710			 -0.09890
	138.75			  9.51300			  -0.21448			 -0.02573
	139.00			  9.57758			  -0.21013			 0.03878
	139.25			  9.63065			  -0.05365			 -0.02367
	139.50			  9.69492			  -0.11568			 0.01507
	139.75			  9.74651			  -0.01775			 -0.00714
	140.00			  9.75483			  -0.22093			 0.09643
	140.25			  9.66878			  -0.27913			 0.00665
	140.50			  9.78323			  -0.19967			 -0.16164
	140.75			  9.76697			  -0.29307			 -0.11879
	141.00			  9.74223			  -0.40790			 -0.22331
	141.25			  9.83435			  -0.38838			 -0.24241
	141.50			  9.85171			  -0.40494			 -0.16703
	141.75			  9.87754			  -0.52709			 -0.02003
	142.00			  9.79039			  -0.48492			 -0.03741
	142.25			  9.70659			  -0.46226			 -0.06830
	142.50			  9.75546			  -0.45791			 -0.02113
	142.75			  9.74371			  -0.41452			 0.02038
	143.00			  9.63540			  -0.30910			 0.01789
	143.25			  9.69632			  -0.36956			 -0.06236
	143.50			  9.60326			  -0.49363			 -0.08421
	143.75			  9.62380			  -0.45547			 -0.00974
	144.00			  9.53152			  -0.33663			 -0.03942
	144.25			  9.62225			  -0.30039			 -0.07337
	144.50			  9.58645			  -0.44728			 -0.13714
	144.75			  9.67687			  -0.48143			 -0.09651
	145.00			  9.68294			  -0.41713			 -0.05451
	145.25			  9.65415			  -0.40563			 -0.04305
	145.50			  9.52249			  -0.34325			 -0.02568
	145.75			  9.51518			  -0.32374			 -0.12207
	146.00			  9.51930			  -0.39204			 -0.17473
	146.25			  9.55533			  -0.57779			 -0.18411
	146.50			  9.62723			  -0.82575			 -0.19672
	146.75			  9.71717			  -0.92089			 -0.04829
	147.00			  9.75880			  -0.83185			 -0.05576
	147.25			  9.77779			  -0.67816			 0.00064
	147.50			  9.78012			  -0.56141			 -0.01415
	147.75			  9.76985			  -0.52412			 -0.26416
	148.00			  9.82354			  -0.53824			 -0.22230
	148.25			  9.81156			  -0.49415			 -0.13011
	148.50			  9.77273			  -0.54869			 -0.14422
	148.75			  9.81661			  -0.56211			 -0.15705
	149.00			  9.89147			  -0.64279			 -0.16083
	149.25			  9.93924			  -0.72730			 -0.06868
	149.50			  9.87318			  -0.64348			 -0.04396
	149.75			  9.95846			  -0.62432			 -0.07564
	150.00			  9.98009			  -0.64627			 -0.06083
	150.25			  10.01402			  -0.55775			 -0.12046
	150.50			  9.97737			  -0.49833			 -0.14028
	150.75			  10.04584			  -0.54538			 -0.16571
	151.00			  10.05409			  -0.57431			 -0.17722
	151.25			  10.10179			  -0.50652			 -0.18699
	151.50			  10.12349			  -0.62850			 -0.16425
	151.75			  10.09369			  -0.66858			 -0.11434
	152.00			  10.08537			  -0.57709			 0.02859
	152.25			  10.29289			  -0.52900			 0.00545
	152.50			  10.33553			  -0.61107			 0.08870
	152.75			  10.28479			  -0.54765			 0.15350
	153.00			  10.20053			  -0.52952			 0.18351
	153.25			  10.29608			  -0.52343			 0.16027
	153.50			  10.22963			  -0.38647			 0.21057
	153.75			  10.08311			  -0.38368			 0.25398
	154.00			  10.01666			  -0.40232			 0.14414
	154.25			  10.05051			  -0.27582			 0.06688
	154.50			  10.01588			  -0.27826			 0.12409
	154.75			  9.93177			  -0.35336			 0.22287
	155.00			  9.96858			  -0.51977			 0.24500
	155.25			  9.87824			  -0.48753			 0.17535
	155.50			  9.85116			  -0.45704			 0.05664
	155.75			  9.92485			  -0.38769			 0.04589
	156.00			  9.88524			  -0.42707			 0.06154
	156.25			  9.85886			  -0.46645			 0.27070
	156.50			  9.93909			  -0.54451			 0.28475
	156.75			  9.90858			  -0.56891			 0.15407
	157.00			  9.82626			  -0.35336			 0.17288
	157.25			  9.72503			  -0.25055			 0.11174
	157.50			  9.72153			  -0.27129			 0.25163
	157.75			  9.77833			  -0.32443			 0.03476
	158.00			  9.79981			  -0.43526			 -0.16030
	158.25			  9.77281			  -0.58354			 -0.16485
	158.50			  9.69834			  -0.65237			 -0.15947
	158.75			  9.70698			  -0.60079			 -0.03896
	159.00			  9.70325			  -0.52046			 -0.01297
	159.25			  9.79529			  -0.40337			 -0.12173
	159.50			  9.78712			  -0.41104			 -0.09438
	159.75			  9.90399			  -0.46000			 -0.06512
	160.00			  9.95270			  -0.23626			 -0.13449
	160.25			  9.93691			  -0.06637			 -0.09469
	160.50			  9.95426			  -0.13642			 0.08753
	160.75			  9.97519			  -0.27878			 -0.01072
	161.00			  10.05992			  -0.16029			 -0.09740
	161.25			  10.11509			  -0.21291			 -0.18423
	161.50			  10.06273			  -0.28279			 -0.13403
	161.75			  10.00001			  -0.03100			 0.02278
	162.00			  9.98476			  -0.02716			 -0.15545
	162.25			  9.96157			  -0.03117			 -0.15657
	162.50			  9.88322			  -0.01340			 -0.12743
	162.75			  9.89396			  -0.02420			 -0.16947
	163.00			  9.95807			  -0.06498			 -0.18280
	163.25			  9.91543			  -0.11551			 -0.13161
	163.50			  9.94912			  -0.07473			 -0.04918
	163.75			  9.95768			  -0.23766			 -0.09443
	164.00			  9.98764			  -0.20507			 -0.14126
	164.25			  9.92243			  -0.14356			 -0.14860
	164.50			  9.94290			  -0.18347			 0.02732
	164.75			  10.08194			  -0.13136			 0.03103