--------------TurbSim v2.00.* User Time Series Input File-----------------------
     Time series input from low-res turbsim run
--------------------------------------------------------------------------------
          3 nComp - Number of velocity components in the file
          1 nPoints - Number of time series points contained in this file (-)
          1 RefPtID - Index of the reference point (1-nPoints)
     Pointyi Pointzi ! nPoints listed in order of increasing height
       (m)     (m)
       2.39866   94.00000
--------Time Series-------------------------------------------------------------
Elapsed Time         Point01u             Point01v           Point01w
         (s)            (m/s)                (m/s)              (m/s)
	0.00			  9.23557			  0.22374			 0.07908
	0.25			  9.09744			  0.24075			 0.25105
	0.50			  9.04852			  0.28524			 0.25691
	0.75			  9.03512			  0.02518			 0.41261
	1.00			  9.15622			  -0.13976			 0.50290
	1.25			  9.12402			  -0.26910			 0.50186
	1.50			  9.02442			  -0.33338			 0.40240
	1.75			  8.96418			  -0.44789			 0.35737
	2.00			  9.10252			  -0.64803			 0.05140
	2.25			  9.27120			  -0.52324			 0.14835
	2.50			  9.44371			  -0.30569			 0.17507
	2.75			  9.54892			  -0.34465			 0.18197
	3.00			  9.51600			  -0.37867			 0.11015
	3.25			  9.51018			  -0.18327			 0.13467
	3.50			  9.44548			  0.05722			 0.02496
	3.75			  9.39095			  0.06058			 -0.09405
	4.00			  9.16339			  -0.20503			 -0.22821
	4.25			  8.90519			  0.07126			 -0.17995
	4.50			  9.21688			  -0.06560			 -0.18845
	4.75			  9.44693			  0.00184			 -0.21581
	5.00			  9.44766			  0.31590			 -0.18247
	5.25			  9.44537			  0.25657			 -0.24069
	5.50			  9.42387			  0.45414			 -0.13664
	5.75			  9.10865			  0.62422			 -0.01843
	6.00			  9.09868			  0.48914			 0.13643
	6.25			  9.01767			  0.52276			 -0.05664
	6.50			  8.90072			  0.43891			 0.04350
	6.75			  9.00687			  0.46146			 0.33029
	7.00			  8.86437			  0.63312			 0.09136
	7.25			  8.84848			  0.47174			 -0.08587
	7.50			  8.91505			  0.34952			 -0.32508
	7.75			  9.03865			  0.24233			 -0.14199
	8.00			  9.29820			  0.38433			 -0.12336
	8.25			  9.10668			  0.27120			 -0.02501
	8.50			  9.14999			  0.11556			 0.05351
	8.75			  9.22311			  0.07541			 -0.21126
	9.00			  9.22570			  0.17489			 0.02404
	9.25			  9.21677			  0.11061			 0.01044
	9.50			  8.86427			  0.29830			 0.10041
	9.75			  8.82781			  0.38769			 -0.10023
	10.00			  9.08549			  0.50239			 -0.16097
	10.25			  9.09224			  0.41676			 -0.19886
	10.50			  9.33798			  0.46759			 -0.04934
	10.75			  9.53366			  0.52474			 0.18157
	11.00			  9.32417			  0.50793			 0.12757
	11.25			  9.22269			  0.42922			 0.24279
	11.50			  9.34909			  0.31610			 0.18636
	11.75			  9.61134			  0.28386			 0.13092
	12.00			  9.76309			  0.35802			 0.12825
	12.25			  9.73421			  0.45434			 0.12658
	12.50			  9.60657			  0.36316			 0.16937
	12.75			  9.18634			  0.27615			 0.20451
	13.00			  9.32884			  0.25439			 0.16068
	13.25			  9.29789			  0.14720			 0.06552
	13.50			  9.22467			  0.11734			 -0.05736
	13.75			  9.27805			  -0.10535			 -0.05237
	14.00			  9.43696			  -0.02525			 -0.21174
	14.25			  9.50104			  -0.14194			 -0.33186
	14.50			  9.55183			  -0.06738			 -0.20855
	14.75			  9.69568			  0.06216			 -0.25334
	15.00			  9.64115			  0.11655			 -0.17565
	15.25			  9.85760			  0.11022			 -0.21808
	15.50			  9.78936			  -0.09863			 -0.14757
	15.75			  9.69973			  -0.12770			 0.01742
	16.00			  9.80951			  -0.00429			 0.14050
	16.25			  9.64333			  0.11259			 0.16060
	16.50			  9.71199			  0.15788			 0.07030
	16.75			  9.72175			  0.13929			 0.24287
	17.00			  9.70430			  0.18438			 0.20363
	17.25			  9.71271			  0.01509			 0.14014
	17.50			  9.83631			  0.01074			 0.20451
	17.75			  9.79674			  -0.16666			 0.16299
	18.00			  9.83621			  -0.15776			 0.21950
	18.25			  10.06117			  -0.15222			 0.31278
	18.50			  10.34513			  0.06315			 0.21236
	18.75			  10.36891			  0.02419			 0.06113
	19.00			  10.46312			  -0.11128			 0.11433
	19.25			  10.45678			  -0.08023			 -0.02872
	19.50			  10.45720			  -0.06639			 -0.09186
	19.75			  10.33318			  -0.03811			 -0.19052
	20.00			  10.35811			  -0.05551			 -0.31631
	20.25			  10.23618			  -0.11603			 -0.18570
	20.50			  10.12982			  -0.06085			 -0.24289
	20.75			  10.06470			  -0.02446			 -0.22701
	21.00			  10.19671			  0.08312			 -0.22681
	21.25			  10.02980			  -0.31953			 -0.45765
	21.50			  9.88502			  -0.42949			 -0.36329
	21.75			  9.90527			  -0.45066			 -0.34510
	22.00			  9.59514			  -0.39073			 -0.25653
	22.25			  9.75748			  -0.29145			 -0.36975
	22.50			  9.78230			  -0.43325			 -0.43472
	22.75			  9.75582			  -0.53372			 -0.40859
	23.00			  9.67626			  -0.54756			 -0.15654
	23.25			  9.82561			  -0.48388			 -0.11251
	23.50			  9.95585			  -0.36937			 -0.25529
	23.75			  9.78614			  0.02973			 -0.26303
	24.00			  10.01152			  0.18201			 -0.40556
	24.25			  9.93415			  -0.09368			 -0.62264
	24.50			  9.67979			  -0.05591			 -0.61410
	24.75			  9.59400			  0.09914			 -0.55253
	25.00			  9.65850			  -0.35217			 -0.54994
	25.25			  9.62859			  -0.27049			 -0.33828
	25.50			  9.44340			  -0.14036			 -0.36476
	25.75			  9.38399			  0.00580			 -0.27272
	26.00			  9.56876			  0.08945			 -0.27838
	26.25			  9.84856			  -0.03218			 -0.16962
	26.50			  9.73411			  0.22374			 -0.09604
	26.75			  9.68093			  0.47985			 -0.35771
	27.00			  9.84545			  0.50140			 -0.11626
	27.25			  10.00934			  0.33943			 -0.23024
	27.50			  9.94007			  0.20930			 -0.48226
	27.75			  9.98919			  0.16184			 -0.45721
	28.00			  10.14883			  0.07126			 -0.46000
	28.25			  10.05172			  0.26329			 -0.38774
	28.50			  10.03946			  0.50714			 -0.38873
	28.75			  10.00560			  0.23481			 -0.10075
	29.00			  10.10801			  0.15768			 -0.00300
	29.25			  9.98359			  0.44445			 0.04275
	29.50			  10.21032			  0.15491			 -0.01560
	29.75			  10.04943			  0.24945			 -0.10557
	30.00			  9.97621			  0.17548			 -0.21006
	30.25			  9.90922			  0.28168			 -0.09449
	30.50			  9.82509			  0.42072			 0.07493
	30.75			  9.82073			  0.28386			 0.16594
	31.00			  9.88907			  0.33488			 0.15593
	31.25			  10.16919			  0.29256			 0.26213
	31.50			  10.14073			  0.31728			 0.25783
	31.75			  10.23763			  0.25835			 0.15936
	32.00			  10.35022			  0.14938			 -0.00826
	32.25			  10.33152			  0.31629			 -0.04571
	32.50			  10.00882			  0.04871			 -0.11200
	32.75			  10.24002			  0.23897			 -0.14039
	33.00			  10.16150			  0.19467			 -0.07710
	33.25			  10.09119			  0.15254			 0.04450
	33.50			  10.34648			  0.10132			 0.19769
	33.75			  10.38210			  0.00916			 0.12143
	34.00			  10.23109			  0.14166			 -0.02828
	34.25			  10.47901			  0.06592			 0.04618
	34.50			  10.48711			  0.11358			 -0.16512
	34.75			  10.53520			  0.15116			 -0.24133
	35.00			  10.56075			  0.48954			 -0.19854
	35.25			  10.40526			  0.44583			 -0.05333
	35.50			  10.22268			  0.20574			 0.01096
	35.75			  10.20762			  0.36297			 0.16610
	36.00			  10.39197			  0.02063			 0.08490
	36.25			  10.42811			  0.07462			 0.03569
	36.50			  10.22101			  0.33429			 0.27765
	36.75			  10.22610			  0.25281			 0.19342
	37.00			  10.16244			  0.20396			 0.14716
	37.25			  10.21613			  0.00995			 -0.03578
	37.50			  10.48056			  0.28979			 -0.05126
	37.75			  10.38885			  0.00402			 -0.20093
	38.00			  10.31148			  0.17607			 0.00123
	38.25			  10.52834			  0.20515			 -0.07175
	38.50			  10.76494			  0.36653			 -0.03718
	38.75			  10.64010			  0.40450			 -0.03175
	39.00			  10.36611			  0.40430			 0.18090
	39.25			  10.19941			  0.52810			 -0.00595
	39.50			  10.26380			  0.51644			 -0.06115
	39.75			  10.14312			  0.27397			 -0.08954
	40.00			  10.26651			  0.27160			 -0.20480
	40.25			  10.32031			  0.24332			 -0.12803
	40.50			  10.11601			  0.20258			 0.13252
	40.75			  9.79746			  0.11398			 0.26070
	41.00			  9.88149			  0.03131			 0.11728
	41.25			  9.89821			  -0.11247			 0.22624
	41.50			  10.03126			  0.05761			 0.09005
	41.75			  9.72019			  0.02221			 -0.03323
	42.00			  9.56357			  -0.03692			 0.03006
	42.25			  9.58953			  0.10250			 0.03150
	42.50			  9.73494			  0.21148			 0.13068
	42.75			  9.85023			  0.25380			 -0.01221
	43.00			  10.01848			  -0.05808			 0.10795
	43.25			  10.10230			  -0.20878			 -0.03774
	43.50			  9.99106			  -0.05828			 -0.23555
	43.75			  9.97694			  0.16104			 -0.14242
	44.00			  9.84836			  0.02300			 -0.12157
	44.25			  9.69568			  0.13593			 -0.15088
	44.50			  9.77991			  0.07422			 -0.27659
	44.75			  9.90559			  0.05860			 -0.22374
	45.00			  9.82011			  0.11477			 0.00498
	45.25			  9.87214			  -0.19632			 -0.05760
	45.50			  9.94599			  -0.09784			 0.01969
	45.75			  10.02025			  0.02439			 -0.18179
	46.00			  10.29725			  0.12485			 -0.01576
	46.25			  10.03552			  -0.15262			 -0.12169
	46.50			  9.95295			  -0.29343			 -0.16871
	46.75			  10.06595			  -0.13581			 -0.10438
	47.00			  10.13232			  0.00382			 -0.04691
	47.25			  10.17760			  -0.05512			 0.09623
	47.50			  10.18892			  0.02379			 0.15190
	47.75			  10.04881			  -0.05887			 0.12414
	48.00			  10.18072			  -0.18090			 0.06500
	48.25			  10.08537			  -0.22955			 0.29512
	48.50			  10.08527			  -0.26693			 0.35107
	48.75			  9.77015			  -0.10851			 0.34832
	49.00			  9.97590			  -0.14154			 0.20259
	49.25			  10.08495			  0.00738			 0.32303
	49.50			  10.40807			  0.04139			 0.43446
	49.75			  10.43757			  -0.06738			 0.40088
	50.00			  10.53935			  -0.10397			 0.36272
	50.25			  10.51764			  -0.08379			 0.23577
	50.50			  10.42001			  -0.07569			 0.44962
	50.75			  10.45522			  -0.03000			 0.26154
	51.00			  10.48295			  -0.10891			 0.16654
	51.25			  10.58006			  0.03507			 0.26688
	51.50			  10.57113			  0.10547			 0.31286
	51.75			  10.46613			  -0.01299			 0.31769
	52.00			  10.49199			  0.09400			 0.06731
	52.25			  10.61922			  0.09598			 -0.05871
	52.50			  10.61662			  0.11318			 0.00294
	52.75			  10.55057			  0.21919			 -0.13389
	53.00			  10.58682			  0.24154			 -0.03207
	53.25			  10.45065			  0.12703			 -0.01696
	53.50			  10.63085			  0.09835			 -0.23503
	53.75			  10.60312			  0.04495			 -0.33812
	54.00			  10.66087			  0.25993			 -0.12863
	54.25			  10.59918			  0.24391			 0.17208
	54.50			  10.70252			  0.04871			 0.31382
	54.75			  10.30296			  -0.17477			 0.25188
	55.00			  10.25851			  -0.17101			 0.03896
	55.25			  10.22725			  -0.32507			 -0.04946
	55.50			  10.42635			  -0.40102			 -0.02525
	55.75			  10.56158			  -0.27761			 0.06927
	56.00			  10.59668			  -0.12533			 0.18596
	56.25			  10.60967			  -0.19534			 0.17065
	56.50			  10.51733			  -0.18189			 0.13184
	56.75			  10.53333			  -0.24122			 0.16981
	57.00			  10.35281			  -0.30431			 -0.07136
	57.25			  10.46904			  -0.18209			 -0.18749
	57.50			  10.49022			  -0.26396			 -0.04926
	57.75			  10.51577			  -0.48764			 -0.02573
	58.00			  10.28094			  -0.54638			 -0.18019
	58.25			  10.15111			  -0.67097			 -0.08799
	58.50			  10.14789			  -0.61579			 -0.20324
	58.75			  10.28489			  -0.38954			 -0.14633
	59.00			  10.33194			  -0.53668			 -0.25784
	59.25			  10.45751			  -0.53688			 -0.29374
	59.50			  10.23909			  -0.38816			 -0.32911
	59.75			  10.23306			  -0.42870			 -0.45015
	60.00			  10.21167			  -0.12216			 -0.47332
	60.25			  10.35738			  0.11991			 -0.21613
	60.50			  10.30577			  0.13375			 -0.45877
	60.75			  10.23379			  0.29572			 -0.46830
	61.00			  10.21541			  0.32935			 -0.56058
	61.25			  10.32643			  0.31886			 -0.33059
	61.50			  10.34939			  0.11694			 -0.29210
	61.75			  10.31117			  0.06453			 -0.30925
	62.00			  10.35479			  -0.00825			 -0.48943
	62.25			  10.30255			  -0.00034			 -0.25948
	62.50			  10.54579			  0.13909			 -0.26873
	62.75			  10.51224			  0.10784			 -0.17505
	63.00			  10.53104			  0.05860			 -0.29246
	63.25			  10.49365			  -0.06520			 -0.21720
	63.50			  10.69244			  0.20495			 -0.16496
	63.75			  10.57819			  0.13118			 0.06891
	64.00			  10.62441			  0.01845			 0.04346
	64.25			  10.79038			  -0.03356			 -0.07140
	64.50			  10.78571			  0.06176			 -0.16580
	64.75			  10.63812			  -0.01477			 -0.28652
	65.00			  10.65993			  -0.30510			 -0.21752
	65.25			  10.74261			  -0.14115			 -0.10841
	65.50			  10.59897			  -0.27840			 -0.20352
	65.75			  10.51058			  -0.45619			 -0.30845
	66.00			  10.50435			  -0.30609			 -0.31336
	66.25			  10.35551			  -0.15064			 -0.25074
	66.50			  10.12650			  -0.32349			 -0.31069
	66.75			  10.10864			  -0.28097			 -0.37960
	67.00			  10.13335			  -0.12038			 -0.49051
	67.25			  10.22361			  -0.13620			 -0.52082
	67.50			  10.17791			  -0.00014			 -0.54547
	67.75			  10.24739			  -0.27662			 -0.41338
	68.00			  10.13709			  -0.40814			 -0.47396
	68.25			  10.31979			  -0.26811			 -0.61845
	68.50			  10.34482			  -0.18703			 -0.70866
	68.75			  10.26495			  -0.43108			 -0.66830
	69.00			  10.29237			  -0.47973			 -0.43240
	69.25			  10.29933			  -0.51533			 -0.37908
	69.50			  10.26484			  -0.52205			 -0.43536
	69.75			  10.26962			  -0.54479			 -0.48880
	70.00			  10.19432			  -0.50148			 -0.47723
	70.25			  9.99958			  -0.44551			 -0.56166
	70.50			  10.06719			  -0.03000			 -0.65849
	70.75			  9.97611			  -0.05195			 -0.73068
	71.00			  10.00695			  -0.14985			 -0.69179
	71.25			  10.05691			  -0.23706			 -0.36397
	71.50			  10.16908			  -0.03000			 -0.38199
	71.75			  10.10220			  -0.01101			 -0.55245
	72.00			  10.21395			  -0.07173			 -0.55512
	72.25			  10.23441			  -0.17576			 -0.28221
	72.50			  10.06044			  -0.32309			 -0.35559
	72.75			  10.12681			  -0.28235			 -0.44935
	73.00			  9.87941			  -0.40616			 -0.45470
	73.25			  9.99501			  -0.25704			 -0.43005
	73.50			  9.95357			  -0.28512			 -0.43412
	73.75			  9.79476			  -0.30035			 -0.15176
	74.00			  9.95336			  -0.35494			 -0.20883
	74.25			  10.06803			  -0.32369			 -0.15535
	74.50			  10.22226			  -0.48962			 -0.06103
	74.75			  10.27835			  -0.59661			 -0.07383
	75.00			  10.31345			  -0.46430			 -0.08571
	75.25			  10.19141			  -0.47478			 -0.21441
	75.50			  10.23607			  -0.47973			 -0.18271
	75.75			  10.55711			  -0.70143			 -0.06302
	76.00			  10.50487			  -0.43899			 0.02201
	76.25			  10.55794			  -0.30609			 0.43000
	76.50			  10.54672			  -0.24003			 0.20339
	76.75			  10.65339			  -0.27009			 0.24020
	77.00			  10.49313			  -0.30668			 0.19418
	77.25			  10.49677			  -0.21986			 0.25448
	77.50			  10.30888			  -0.09151			 0.20622
	77.75			  10.47257			  0.03783			 0.40846
	78.00			  10.33869			  -0.09942			 0.30959
	78.25			  10.18518			  -0.29204			 0.26413
	78.50			  10.46166			  -0.26139			 0.24227
	78.75			  10.46156			  -0.26277			 0.21635
	79.00			  10.38688			  -0.34465			 0.02237
	79.25			  10.32228			  -0.26159			 0.10257
	79.50			  10.13252			  -0.04503			 0.04769
	79.75			  10.13273			  -0.28868			 0.09005
	80.00			  10.14925			  -0.21946			 0.30138
	80.25			  10.23639			  -0.19672			 0.29492
	80.50			  10.36081			  -0.25546			 0.29236
	80.75			  10.44079			  -0.26001			 0.28957
	81.00			  10.64602			  -0.32211			 0.36280
	81.25			  10.63979			  -0.40260			 0.47893
	81.50			  10.60271			  -0.47360			 0.36619
	81.75			  10.64487			  -0.53906			 0.31211
	82.00			  10.42884			  -0.40754			 0.40415
	82.25			  10.52616			  -0.41367			 0.32244
	82.50			  10.54766			  -0.61065			 0.05926
	82.75			  10.58245			  -0.76985			 0.16068
	83.00			  10.40329			  -0.72674			 0.16195
	83.25			  10.38834			  -0.84046			 0.16973
	83.50			  10.38802			  -0.81554			 0.00649
	83.75			  10.29798			  -1.01410			 0.01180
	84.00			  10.25082			  -1.34200			 -0.21030
	84.25			  10.35479			  -1.22433			 -0.16500
	84.50			  10.41191			  -1.03190			 -0.30299
	84.75			  10.30057			  -0.96406			 -0.35627
	85.00			  10.51339			  -0.94092			 -0.19814
	85.25			  10.36372			  -1.06987			 -0.25601
	85.50			  10.33183			  -1.03210			 -0.31938
	85.75			  10.43829			  -0.75621			 -0.21266
	86.00			  10.28063			  -0.93934			 -0.27834
	86.25			  10.44297			  -0.82424			 -0.20041
	86.50			  10.36414			  -0.93479			 -0.24827
	86.75			  10.42032			  -1.03862			 -0.09899
	87.00			  10.46145			  -0.84244			 0.06344
	87.25			  10.46623			  -1.10942			 0.02225
	87.50			  10.42915			  -1.19209			 0.27777
	87.75			  10.44712			  -1.32934			 0.41707
	88.00			  10.44941			  -1.39876			 0.11194
	88.25			  10.27108			  -1.36316			 0.15094
	88.50			  10.46779			  -1.34299			 -0.10537
	88.75			  10.37650			  -1.02438			 -0.18976
	89.00			  10.34201			  -1.12366			 -0.04380
	89.25			  10.11996			  -1.27595			 -0.21976
	89.50			  10.37037			  -1.14067			 -0.33761
	89.75			  10.45740			  -1.08055			 -0.16348
	90.00			  10.22122			  -1.04416			 -0.14107
	90.25			  10.12349			  -0.74553			 -0.25258
	90.50			  10.06481			  -0.86755			 -0.26187
	90.75			  10.18747			  -0.89148			 -0.29094
	91.00			  9.99781			  -0.95813			 -0.50491
	91.25			  9.89343			  -0.84441			 -0.34909
	91.50			  9.89634			  -1.05860			 -0.24660
	91.75			  9.83413			  -0.93598			 -0.52712
	92.00			  9.90475			  -0.79774			 -0.52294
	92.25			  10.04206			  -0.68640			 -0.22542
	92.50			  9.96427			  -0.85569			 -0.30347
	92.75			  9.94349			  -0.91759			 -0.50826
	93.00			  9.99366			  -0.86597			 -0.32038
	93.25			  10.00851			  -0.73722			 -0.49681
	93.50			  10.25508			  -0.80170			 -0.67141
	93.75			  10.31158			  -0.76273			 -0.83740
	94.00			  10.23639			  -0.88377			 -0.73176
	94.25			  10.26609			  -1.01924			 -0.74165
	94.50			  10.41440			  -0.80862			 -0.69271
	94.75			  10.11622			  -0.78311			 -0.60693
	95.00			  10.06616			  -0.82919			 -0.66296
	95.25			  10.30680			  -0.90711			 -0.56330
	95.50			  10.17324			  -0.68758			 -0.31260
	95.75			  10.11414			  -0.80308			 -0.28895
	96.00			  10.43611			  -0.45006			 -0.33318
	96.25			  10.20990			  -0.37293			 -0.38626
	96.50			  10.16908			  -0.12770			 -0.48517
	96.75			  10.02721			  -0.10001			 -0.21258
	97.00			  9.99906			  -0.43701			 -0.07291
	97.25			  9.98774			  -0.79537			 -0.11172
	97.50			  10.11694			  -0.85410			 -0.31352
	97.75			  9.98369			  -1.09024			 -0.20795
	98.00			  10.06356			  -1.03763			 -0.10290
	98.25			  10.12494			  -1.05721			 -0.24113
	98.50			  10.07228			  -0.85865			 -0.44513
	98.75			  10.07000			  -1.02834			 -0.39862
	99.00			  9.97933			  -0.86024			 -0.29441
	99.25			  10.03552			  -1.11555			 -0.30359
	99.50			  10.14333			  -1.04376			 -0.14223
	99.75			  10.17729			  -1.11892			 -0.08727
	100.00			  10.17095			  -0.93855			 -0.04846
	100.25			  10.03323			  -0.83195			 -0.02414
	100.50			  9.99885			  -0.86221			 0.01686
	100.75			  9.83807			  -0.67117			 0.03940
	101.00			  9.94183			  -0.46213			 -0.25126
	101.25			  9.98255			  -0.40556			 -0.20990
	101.50			  10.08101			  -0.43582			 -0.23028
	101.75			  10.16140			  -0.45066			 -0.44612
	102.00			  10.22787			  -0.38915			 -0.51971
	102.25			  10.03334			  -0.30075			 -0.42351
	102.50			  10.20907			  -0.11385			 -0.32692
	102.75			  10.03115			  -0.12473			 -0.11742
	103.00			  9.98909			  -0.12117			 -0.19539
	103.25			  10.06262			  -0.23509			 -0.19351
	103.50			  10.07924			  -0.55884			 -0.22566
	103.75			  10.03250			  -0.33892			 -0.15255
	104.00			  9.97746			  -0.49080			 0.05886
	104.25			  9.89167			  -0.51711			 -0.22362
	104.50			  9.95679			  -0.56675			 -0.03399
	104.75			  9.86134			  -0.53431			 -0.12328
	105.00			  9.76994			  -0.24893			 0.02480
	105.25			  9.96447			  -0.06085			 0.03616
	105.50			  10.02658			  -0.23904			 -0.05062
	105.75			  10.02253			  -0.21215			 -0.16456
	106.00			  10.33796			  -0.13067			 -0.08898
	106.25			  10.31729			  -0.20661			 -0.24257
	106.50			  10.23410			  -0.23944			 -0.21130
	106.75			  10.26121			  -0.35889			 -0.11235
	107.00			  10.32560			  -0.34544			 0.05882
	107.25			  10.35396			  -0.27088			 -0.06573
	107.50			  10.34544			  -0.31202			 -0.11263
	107.75			  10.42053			  -0.12869			 -0.04743
	108.00			  10.64290			  -0.02961			 0.04550
	108.25			  11.03581			  -0.03059			 0.25009
	108.50			  11.07330			  0.00817			 0.23872
	108.75			  10.89664			  0.12030			 0.06185
	109.00			  10.84969			  -0.02209			 0.03648
	109.25			  10.70335			  -0.29284			 0.14101
	109.50			  10.76213			  -0.26436			 -0.18466
	109.75			  10.83484			  -0.39212			 -0.10518
	110.00			  10.73586			  -0.39409			 -0.07100
	110.25			  10.63999			  -0.36027			 -0.20516
	110.50			  10.70252			  -0.17358			 -0.26008
	110.75			  10.65630			  -0.16013			 -0.26550
	111.00			  10.74957			  -0.15578			 -0.39472
	111.25			  10.78415			  -0.29897			 -0.27511
	111.50			  10.71311			  -0.11741			 -0.12504
	111.75			  10.46717			  0.01707			 -0.13233
	112.00			  10.37525			  0.08194			 -0.10390
	112.25			  10.34658			  -0.10120			 -0.15140
	112.50			  10.39187			  -0.11781			 -0.35017
	112.75			  10.25622			  -0.13225			 -0.29286
	113.00			  10.56469			  -0.20582			 -0.47276
	113.25			  10.34035			  -0.29066			 -0.23104
	113.50			  10.30327			  -0.35909			 -0.12460
	113.75			  10.45252			  -0.37768			 -0.07136
	114.00			  10.32882			  -0.44472			 0.04713
	114.25			  10.42282			  -0.21432			 -0.04136
	114.50			  10.50321			  -0.27504			 -0.12336
	114.75			  10.55680			  -0.28947			 -0.21916
	115.00			  10.65682			  -0.29521			 -0.25274
	115.25			  10.65485			  -0.32626			 -0.25800
	115.50			  10.54828			  -0.04661			 -0.24771
	115.75			  10.72069			  -0.04187			 -0.29481
	116.00			  10.70667			  0.16184			 -0.26741
	116.25			  10.63729			  0.26270			 -0.01161
	116.50			  10.71965			  0.27971			 -0.05620
	116.75			  10.64560			  0.06612			 -0.13437
	117.00			  10.67136			  0.00144			 -0.34474
	117.25			  10.57061			  -0.02901			 -0.47962
	117.50			  10.39488			  0.15234			 -0.29677
	117.75			  10.25778			  -0.03059			 -0.45829
	118.00			  10.24137			  -0.13047			 -0.22701
	118.25			  10.23597			  -0.37511			 -0.33673
	118.50			  10.29081			  -0.48190			 -0.28329
	118.75			  10.24158			  -0.24735			 -0.08388
	119.00			  10.20066			  -0.28077			 -0.05500
	119.25			  10.08869			  0.03388			 0.06025
	119.50			  10.09586			  -0.01378			 -0.06641
	119.75			  10.13927			  0.05188			 -0.24955
	120.00			  10.19318			  0.16638			 0.07465
	120.25			  10.36850			  0.03170			 0.14855
	120.50			  10.49344			  0.03764			 0.15868
	120.75			  10.38834			  0.11991			 0.56591
	121.00			  10.62078			  -0.00192			 0.51335
	121.25			  10.47361			  -0.08953			 0.34218
	121.50			  10.47807			  -0.17536			 0.57329
	121.75			  10.47433			  -0.23865			 0.59024
	122.00			  10.63740			  -0.19118			 0.50457
	122.25			  10.58069			  -0.26574			 0.27027
	122.50			  10.53208			  -0.24636			 -0.05800
	122.75			  10.51048			  -0.32567			 -0.00918
	123.00			  10.38314			  -0.34386			 -0.00120
	123.25			  10.56365			  -0.21749			 0.10265
	123.50			  10.74001			  -0.41090			 0.39159
	123.75			  10.83255			  -0.32646			 0.22161
	124.00			  10.90567			  -0.37135			 0.37695
	124.25			  11.04724			  -0.25506			 0.64129
	124.50			  10.81760			  -0.25091			 0.68624
	124.75			  11.01743			  -0.22441			 0.89745
	125.00			  10.78987			  -0.14293			 0.71986
	125.25			  10.71976			  -0.15400			 0.64919
	125.50			  10.70096			  -0.20364			 0.60177
	125.75			  10.96435			  -0.23746			 0.69720
	126.00			  11.03415			  -0.23390			 0.58725
	126.25			  10.85540			  -0.09368			 0.51443
	126.50			  10.71477			  -0.29600			 0.33444
	126.75			  10.71373			  -0.49634			 0.19342
	127.00			  11.03134			  -0.56595			 0.36766
	127.25			  11.02542			  -0.36265			 0.36491
	127.50			  11.18911			  -0.39647			 0.64703
	127.75			  10.98502			  -0.33753			 0.62274
	128.00			  10.74365			  -0.16765			 0.28790
	128.25			  10.93683			  -0.07133			 0.41815
	128.50			  10.74894			  -0.04009			 0.12626
	128.75			  10.84097			  -0.08716			 -0.03821
	129.00			  10.76421			  -0.22559			 0.08857
	129.25			  10.91772			  -0.14589			 0.09423
	129.50			  10.76764			  -0.23766			 0.21587
	129.75			  10.81604			  -0.17912			 0.29033
	130.00			  10.71508			  -0.25348			 0.06073
	130.25			  10.70231			  -0.22223			 0.08059
	130.50			  10.65620			  -0.07351			 0.21152
	130.75			  10.59897			  -0.03692			 0.25643
	131.00			  10.59814			  0.31669			 0.18995
	131.25			  10.35863			  0.51129			 0.15693
	131.50			  10.49677			  0.48855			 0.26261
	131.75			  10.59107			  0.20099			 0.00717
	132.00			  10.69940			  0.17350			 -0.06470
	132.25			  10.78561			  0.28485			 -0.15255
	132.50			  10.90567			  0.25894			 -0.19842
	132.75			  10.55493			  0.09993			 -0.08420
	133.00			  10.41825			  0.16935			 -0.15032
	133.25			  10.51048			  0.14186			 0.03792
	133.50			  10.68060			  0.23007			 -0.03131
	133.75			  10.60946			  0.20000			 0.03776
	134.00			  10.56989			  0.34319			 0.12534
	134.25			  10.67302			  0.21741			 0.05762
	134.50			  10.74739			  0.10488			 -0.03183
	134.75			  10.72194			  -0.09052			 -0.13170
	135.00			  10.67967			  0.28979			 -0.15036
	135.25			  10.60084			  0.49804			 -0.28584
	135.50			  10.45678			  0.43970			 -0.24017
	135.75			  10.52190			  0.22255			 -0.44022
	136.00			  10.47558			  0.05464			 -0.27224
	136.25			  10.23836			  0.12307			 -0.04316
	136.50			  10.15610			  0.06908			 0.20439
	136.75			  10.33495			  0.08194			 0.06388
	137.00			  10.67489			  -0.02644			 -0.14330
	137.25			  10.41981			  -0.02783			 -0.00368
	137.50			  10.63843			  -0.18248			 0.12741
	137.75			  10.69971			  -0.19019			 -0.00416
	138.00			  10.72890			  -0.05868			 0.11226
	138.25			  10.75736			  -0.18644			 0.39482
	138.50			  10.81043			  -0.19356			 0.38900
	138.75			  10.71384			  -0.09467			 0.12259
	139.00			  10.67769			  -0.10891			 0.24016
	139.25			  10.54963			  -0.29046			 0.13240
	139.50			  10.41492			  -0.36463			 0.17874
	139.75			  10.36673			  -0.31953			 -0.03618
	140.00			  10.37390			  -0.37570			 -0.15810
	140.25			  10.50113			  -0.49377			 0.03002
	140.50			  10.37847			  -0.08854			 -0.00144
	140.75			  10.54579			  -0.10753			 -0.05006
	141.00			  10.75019			  -0.23983			 -0.03319
	141.25			  10.47444			  -0.23924			 -0.11323
	141.50			  10.56999			  -0.21116			 -0.06087
	141.75			  10.61257			  -0.26673			 0.14293
	142.00			  10.55597			  -0.18782			 0.17966
	142.25			  10.66949			  0.12426			 0.02950
	142.50			  10.70241			  -0.01497			 0.21962
	142.75			  10.57643			  -0.19257			 0.21842
	143.00			  10.44920			  -0.09447			 -0.01433
	143.25			  10.47267			  -0.39212			 -0.03953
	143.50			  10.47454			  -0.48111			 -0.01137
	143.75			  10.50009			  -0.59087			 -0.41091
	144.00			  10.42334			  -0.39370			 -0.45613
	144.25			  10.52055			  -0.37748			 -0.19172
	144.50			  10.40890			  -0.23904			 -0.24460
	144.75			  10.39633			  -0.30945			 -0.28712
	145.00			  10.30203			  -0.43187			 -0.05987
	145.25			  10.08807			  -0.35078			 0.01997
	145.50			  10.24501			  -0.34089			 0.02069
	145.75			  10.37161			  -0.64308			 -0.03710
	146.00			  10.32353			  -0.45441			 0.02536
	146.25			  10.12951			  -0.24181			 0.06580
	146.50			  10.01474			  -0.28196			 0.08909
	146.75			  9.88585			  -0.34821			 0.30796
	147.00			  9.76651			  -0.32408			 0.05591
	147.25			  9.70710			  -0.32290			 -0.08559
	147.50			  9.46490			  -0.27148			 -0.14514
	147.75			  9.49253			  -0.30114			 0.01670
	148.00			  9.44745			  -0.18011			 -0.11192
	148.25			  9.23370			  -0.09467			 0.02408
	148.50			  9.34982			  -0.12592			 -0.07459
	148.75			  9.14760			  -0.12612			 0.04701
	149.00			  9.31970			  -0.28690			 0.09910
	149.25			  9.23131			  -0.06382			 0.27306
	149.50			  9.13483			  0.10587			 0.34728
	149.75			  9.24347			  0.03586			 0.32654
	150.00			  9.48557			  -0.25744			 0.37412
	150.25			  9.62194			  -0.18149			 0.23282
	150.50			  9.54477			  -0.02347			 0.19900
	150.75			  9.43987			  -0.15855			 0.21320
	151.00			  9.39303			  -0.51612			 0.33193
	151.25			  9.51745			  -0.34346			 0.60819
	151.50			  9.54196			  -0.30905			 0.56970
	151.75			  9.63970			  -0.23766			 0.39937
	152.00			  9.57395			  -0.35632			 0.30636
	152.25			  9.71967			  -0.37214			 0.19087
	152.50			  9.56720			  -0.42791			 0.17025
	152.75			  9.63087			  -0.43918			 0.28570
	153.00			  9.65600			  -0.74909			 0.33659
	153.25			  9.67906			  -0.85905			 0.32259
	153.50			  9.67013			  -0.90157			 0.43123
	153.75			  9.49149			  -0.80901			 0.34824
	154.00			  9.53989			  -0.77678			 0.28937
	154.25			  9.48578			  -0.66464			 0.26469
	154.50			  9.54383			  -0.59661			 0.21663
	154.75			  9.73349			  -0.54519			 0.19402
	155.00			  9.67865			  -0.47716			 0.39757
	155.25			  9.51963			  -0.34722			 0.17671
	155.50			  9.67449			  -0.09764			 0.12147
	155.75			  9.64313			  -0.17991			 0.13411
	156.00			  9.81990			  -0.25190			 0.12881
	156.25			  9.77503			  -0.33694			 0.21288
	156.50			  9.63451			  -0.38757			 0.24726
	156.75			  9.73338			  -0.32824			 0.28738
	157.00			  9.66847			  -0.38658			 0.03034
	157.25			  9.81263			  -0.51335			 0.01319
	157.50			  10.19713			  -0.39548			 0.10684
	157.75			  10.23940			  -0.48408			 0.05874
	158.00			  10.31470			  -0.62370			 0.13124
	158.25			  10.04206			  -0.53253			 0.12107
	158.50			  10.01454			  -0.56576			 0.18133
	158.75			  9.94910			  -0.58909			 0.03094
	159.00			  9.81959			  -0.56180			 0.04434
	159.25			  9.53812			  -0.51177			 -0.06354
	159.50			  9.60511			  -0.77341			 -0.10845
	159.75			  9.71406			  -0.81613			 -0.16304
	160.00			  9.95876			  -0.78370			 -0.02330
	160.25			  10.06771			  -0.96308			 -0.15251
	160.50			  10.17916			  -0.92827			 -0.30331
	160.75			  9.99678			  -0.94725			 -0.28157
	161.00			  10.06491			  -1.02161			 -0.11200
	161.25			  10.01017			  -1.01588			 -0.12918
	161.50			  9.98545			  -0.91680			 -0.08671
	161.75			  10.07478			  -0.93104			 0.06915
	162.00			  9.97964			  -1.07996			 -0.01345
	162.25			  10.17106			  -0.89089			 0.05862
	162.50			  10.13263			  -0.94528			 0.08594
	162.75			  10.09659			  -0.79932			 -0.03044
	163.00			  10.08579			  -0.97652			 0.00322
	163.25			  10.02939			  -0.94152			 -0.14175
	163.50			  9.94287			  -0.86083			 -0.03790
	163.75			  9.95731			  -0.93183			 -0.06545
	164.00			  10.10542			  -1.01113			 -0.02677
	164.25			  10.24075			  -1.01766			 -0.08133
	164.50			  10.39228			  -0.94528			 -0.11467
	164.75			  10.47267			  -0.81119			 -0.07319