--------------TurbSim v2.00.* User Time Series Input File-----------------------
     Time series input from low-res turbsim run
--------------------------------------------------------------------------------
          3 nComp - Number of velocity components in the file
          1 nPoints - Number of time series points contained in this file (-)
          1 RefPtID - Index of the reference point (1-nPoints)
     Pointyi Pointzi ! nPoints listed in order of increasing height
       (m)     (m)
       -4.62352   94.00000
--------Time Series-------------------------------------------------------------
Elapsed Time         Point01u             Point01v           Point01w
         (s)            (m/s)                (m/s)              (m/s)
	0.00			  10.85088			  -0.24614			 -0.09512
	0.25			  10.79188			  -0.32565			 -0.01460
	0.50			  11.20202			  -0.11144			 -0.02535
	0.75			  10.81450			  -0.32996			 -0.13564
	1.00			  10.64649			  -0.51237			 -0.18708
	1.25			  10.64444			  -0.23297			 0.13363
	1.50			  10.45667			  0.20522			 -0.01495
	1.75			  10.56759			  -0.11871			 -0.02248
	2.00			  10.61351			  0.23793			 0.12656
	2.25			  10.98278			  0.25088			 -0.07696
	2.50			  10.87786			  0.54141			 0.18139
	2.75			  10.53898			  0.63523			 -0.01259
	3.00			  10.68396			  0.56526			 -0.03552
	3.25			  10.71421			  0.38899			 -0.08386
	3.50			  10.62359			  0.46145			 -0.55665
	3.75			  10.43651			  0.22589			 -0.37836
	4.00			  10.71121			  0.01600			 -0.27812
	4.25			  10.60588			  -0.05965			 -0.12513
	4.50			  10.74541			  -0.10599			 -0.12467
	4.75			  10.94258			  -0.03443			 -0.25364
	5.00			  10.83970			  0.26269			 -0.64757
	5.25			  10.80169			  0.04394			 -0.17812
	5.50			  10.80264			  -0.02762			 -0.32284
	5.75			  10.99300			  -0.18072			 -0.56182
	6.00			  11.09397			  -0.32678			 -0.47015
	6.25			  10.86600			  -0.12143			 -0.48480
	6.50			  10.44196			  -0.04579			 -0.34502
	6.75			  10.46703			  -0.18367			 -0.17266
	7.00			  10.89516			  0.12481			 0.08862
	7.25			  10.65248			  0.49961			 0.25042
	7.50			  10.48066			  0.44760			 -0.01753
	7.75			  10.47030			  0.04530			 0.46807
	8.00			  10.59607			  -0.29067			 0.62492
	8.25			  10.75427			  -0.06215			 0.49825
	8.50			  10.59389			  0.10663			 0.05414
	8.75			  10.24833			  0.54300			 0.09466
	9.00			  10.24424			  0.98482			 -0.04449
	9.25			  10.22380			  1.05047			 0.19668
	9.50			  10.13619			  1.41029			 0.25185
	9.75			  10.27994			  0.95643			 0.37180
	10.00			  10.07691			  1.24651			 0.32554
	10.25			  9.80303			  1.36213			 0.19409
	10.50			  9.79935			  1.28353			 0.14765
	10.75			  9.73967			  0.87919			 0.31335
	11.00			  9.62371			  0.85739			 0.64429
	11.25			  9.63856			  0.85852			 0.67981
	11.50			  9.67440			  0.88101			 0.54210
	11.75			  10.00565			  0.94189			 0.53262
	12.00			  9.93820			  0.91963			 0.58383
	12.25			  10.15090			  1.00890			 0.79603
	12.50			  10.40735			  0.51688			 1.05466
	12.75			  10.34875			  0.39535			 0.74809
	13.00			  10.29698			  0.57117			 0.48285
	13.25			  10.22476			  0.21226			 0.58659
	13.50			  10.20350			  0.08346			 0.26611
	13.75			  10.18388			  -0.03171			 0.20823
	14.00			  10.07569			  -0.29657			 0.04437
	14.25			  10.12910			  -0.44718			 0.15369
	14.50			  9.85426			  -0.26909			 0.37640
	14.75			  9.85304			  -0.18231			 0.63320
	15.00			  9.63243			  -0.30679			 0.72004
	15.25			  9.61294			  -0.15778			 0.72936
	15.50			  9.78300			  -0.01626			 0.77924
	15.75			  10.02990			  0.14707			 0.76275
	16.00			  10.33063			  -0.09735			 0.65470
	16.25			  9.85958			  0.15842			 0.41767
	16.50			  9.94556			  0.27518			 0.44606
	16.75			  9.97499			  0.09732			 0.64291
	17.00			  9.92266			  -0.23070			 0.47175
	17.25			  9.94937			  -0.06146			 0.74257
	17.50			  9.99911			  0.18296			 0.78942
	17.75			  10.00360			  0.21499			 0.95081
	18.00			  10.26713			  -0.07010			 0.96621
	18.25			  10.57359			  0.09573			 0.90304
	18.50			  10.47057			  0.44328			 0.96173
	18.75			  10.48692			  0.84966			 0.81292
	19.00			  10.18647			  0.50575			 0.46733
	19.25			  10.15921			  0.53959			 0.20202
	19.50			  10.36511			  0.27904			 0.30686
	19.75			  10.24370			  -0.24682			 0.09851
	20.00			  10.49265			  -0.28408			 0.16357
	20.25			  10.44046			  -0.17482			 0.45549
	20.50			  10.33894			  -0.01808			 0.52130
	20.75			  10.21522			  0.32652			 0.50158
	21.00			  10.14763			  0.67907			 0.45738
	21.25			  10.30120			  0.68793			 0.20685
	21.50			  10.44373			  0.62024			 0.20380
	21.75			  10.45790			  0.56390			 0.34962
	22.00			  10.07868			  0.60592			 0.33427
	22.25			  10.14341			  0.97710			 0.43117
	22.50			  10.36592			  0.69838			 0.36583
	22.75			  10.50014			  0.56481			 0.38847
	23.00			  10.33635			  0.30585			 0.16305
	23.25			  10.30011			  0.57117			 0.39675
	23.50			  10.40544			  0.50984			 0.38474
	23.75			  10.59266			  0.27973			 0.66878
	24.00			  10.44237			  0.50825			 0.57354
	24.25			  10.27981			  0.16978			 0.34404
	24.50			  10.61515			  0.09482			 0.42974
	24.75			  10.35843			  0.45214			 0.48193
	25.00			  10.43228			  0.17046			 0.20375
	25.25			  10.44019			  0.16501			 0.51727
	25.50			  10.29261			  0.37195			 0.68964
	25.75			  10.11275			  0.53028			 0.76056
	26.00			  10.23484			  0.38604			 0.76608
	26.25			  10.05007			  0.25792			 0.71114
	26.50			  9.87129			  0.63114			 0.17070
	26.75			  9.80807			  0.65658			 0.04356
	27.00			  9.79158			  0.70905			 -0.02104
	27.25			  9.82047			  0.85807			 0.00258
	27.50			  9.67194			  0.78129			 0.20731
	27.75			  9.29232			  1.02412			 0.15754
	28.00			  9.20225			  1.00141			 0.22266
	28.25			  9.38389			  0.60683			 0.17489
	28.50			  9.53514			  0.22089			 0.04724
	28.75			  9.49153			  0.30835			 -0.19743
	29.00			  9.55326			  0.14184			 -0.14858
	29.25			  9.42272			  0.36377			 -0.41612
	29.50			  9.74621			  0.14888			 -0.34037
	29.75			  9.72904			  0.33765			 -0.23789
	30.00			  9.32025			  0.54891			 -0.53314
	30.25			  9.49848			  0.53959			 -0.20013
	30.50			  9.18113			  0.49666			 -0.16536
	30.75			  9.23087			  0.79742			 0.13759
	31.00			  9.03928			  0.96892			 -0.09610
	31.25			  9.07730			  1.06592			 -0.06708
	31.50			  9.14161			  1.03616			 0.14472
	31.75			  8.85928			  0.67975			 0.21714
	32.00			  8.48320			  0.57798			 -0.10581
	32.25			  8.35934			  0.49961			 -0.25720
	32.50			  8.38386			  0.64500			 -0.12650
	32.75			  8.32541			  0.44101			 -0.01587
	33.00			  8.09008			  0.54618			 0.20363
	33.25			  8.26886			  0.17410			 -0.15231
	33.50			  8.10276			  0.32629			 -0.01138
	33.75			  7.95369			  0.01645			 -0.02081
	34.00			  8.17729			  -0.03511			 -0.29169
	34.25			  7.91826			  0.24270			 -0.20887
	34.50			  7.62366			  0.23884			 -0.22381
	34.75			  7.39965			  -0.05329			 -0.17467
	35.00			  7.62080			  0.38195			 -0.27019
	35.25			  7.88365			  0.44442			 -0.39192
	35.50			  8.05166			  0.36218			 -0.56377
	35.75			  7.90368			  0.55799			 -0.66602
	36.00			  8.21504			  0.31607			 -0.43118
	36.25			  8.23125			  0.09073			 -0.54693
	36.50			  8.02141			  0.14729			 -0.10122
	36.75			  8.01405			  0.15456			 0.05782
	37.00			  8.14813			  0.15797			 -0.05322
	37.25			  7.98952			  0.42215			 -0.05909
	37.50			  8.35934			  0.38331			 -0.05363
	37.75			  8.46126			  0.48735			 -0.04225
	38.00			  8.43714			  0.33992			 0.10431
	38.25			  8.60025			  0.07892			 -0.09719
	38.50			  8.51713			  0.21499			 -0.01437
	38.75			  8.70013			  0.10709			 0.24013
	39.00			  8.75559			  0.06574			 -0.05702
	39.25			  8.97715			  -0.06374			 -0.42739
	39.50			  8.76281			  -0.13938			 -0.30588
	39.75			  8.60897			  0.19659			 -0.24145
	40.00			  8.58580			  0.32130			 -0.29565
	40.25			  8.60706			  -0.07532			 -0.33307
	40.50			  8.33590			  -0.05215			 -0.05179
	40.75			  8.51944			  -0.23456			 -0.01408
	41.00			  8.38291			  -0.45581			 -0.26151
	41.25			  8.39109			  -0.63617			 -0.09340
	41.50			  8.40212			  -0.79155			 -0.06035
	41.75			  8.94799			  -0.75089			 -0.08518
	42.00			  8.84497			  -0.46898			 -0.23134
	42.25			  8.76076			  0.19659			 -0.56027
	42.50			  8.81840			  0.20317			 -0.40905
	42.75			  8.88313			  0.42215			 -0.30462
	43.00			  8.78134			  0.42488			 -0.14789
	43.25			  9.24545			  0.40648			 -0.20571
	43.50			  9.74539			  0.65181			 -0.34681
	43.75			  9.78368			  0.81286			 -0.77821
	44.00			  9.48363			  0.47008			 -0.66407
	44.25			  9.40037			  0.51347			 -0.24939
	44.50			  9.18045			  0.87102			 -0.15898
	44.75			  8.65911			  0.66907			 -0.29422
	45.00			  8.55760			  0.86216			 -0.27330
	45.25			  8.56087			  0.64000			 -0.00276
	45.50			  8.63867			  0.42783			 0.05190
	45.75			  8.28017			  0.64818			 -0.17835
	46.00			  8.10766			  0.62410			 -0.32847
	46.25			  8.27104			  0.79742			 -0.61797
	46.50			  8.36860			  0.76743			 -0.73160
	46.75			  8.22348			  0.54255			 -0.18789
	47.00			  8.05534			  0.49166			 0.02121
	47.25			  8.05098			  0.44101			 -0.10823
	47.50			  7.89591			  0.46395			 -0.04259
	47.75			  7.92821			  0.34424			 0.04500
	48.00			  8.28916			  0.62546			 0.24122
	48.25			  8.39149			  0.58548			 0.34887
	48.50			  8.50677			  0.62069			 0.42842
	48.75			  8.68309			  0.71337			 0.32416
	49.00			  8.58335			  0.49076			 0.19070
	49.25			  8.45322			  0.47803			 0.39548
	49.50			  8.33386			  0.64091			 0.48859
	49.75			  8.47857			  0.32766			 0.52216
	50.00			  8.90874			  0.23952			 0.83718
	50.25			  8.88817			  0.47122			 0.69453
	50.50			  8.51468			  0.45418			 0.66107
	50.75			  8.53430			  0.40852			 0.28140
	51.00			  8.77425			  0.57889			 -0.10386
	51.25			  8.90956			  0.83422			 0.37071
	51.50			  8.83843			  0.85830			 0.39732
	51.75			  8.92455			  0.74835			 0.53325
	52.00			  8.96216			  0.87692			 0.37565
	52.25			  8.87345			  1.03434			 0.06397
	52.50			  8.63731			  1.12816			 -0.05121
	52.75			  8.74714			  1.15019			 0.19961
	53.00			  8.86964			  1.14883			 0.11478
	53.25			  8.94635			  0.52324			 0.35376
	53.50			  9.18658			  0.86307			 0.61458
	53.75			  9.19735			  0.59956			 0.31341
	54.00			  9.16369			  0.53619			 0.16771
	54.25			  9.16028			  0.55709			 0.00132
	54.50			  9.11395			  0.34969			 -0.20312
	54.75			  9.07130			  0.06756			 0.21708
	55.00			  9.33933			  0.30835			 0.27208
	55.25			  9.01625			  0.44305			 0.47497
	55.50			  9.14161			  1.01095			 0.39244
	55.75			  9.17677			  0.93757			 0.09305
	56.00			  8.97224			  0.52506			 0.19558
	56.25			  8.80655			  0.50439			 -0.10392
	56.50			  9.09856			  0.17364			 -0.05052
	56.75			  9.17132			  0.38626			 -0.01644
	57.00			  9.43894			  0.22135			 -0.41135
	57.25			  9.52056			  0.27564			 -0.26680
	57.50			  9.64946			  -0.06737			 -0.33951
	57.75			  9.53459			  0.02894			 -0.05219
	58.00			  9.76678			  0.51302			 -0.24214
	58.25			  10.09395			  0.63863			 -0.15955
	58.50			  9.86584			  0.85353			 0.03207
	58.75			  9.70274			  0.94121			 0.16225
	59.00			  9.62657			  0.80196			 -0.37026
	59.25			  9.45215			  0.29563			 -0.28393
	59.50			  9.74484			  -0.06669			 0.01385
	59.75			  10.20077			  0.21249			 0.16282
	60.00			  10.28253			  0.04825			 -0.06627
	60.25			  9.78014			  -0.06669			 0.05517
	60.50			  9.85576			  -0.06351			 0.24777
	60.75			  9.91245			  0.09028			 -0.02242
	61.00			  9.78082			  0.22339			 -0.29652
	61.25			  9.52396			  -0.10894			 0.02465
	61.50			  9.65805			  -0.25523			 -0.16927
	61.75			  9.42695			  -0.29566			 0.21288
	62.00			  9.35895			  -0.19935			 -0.02742
	62.25			  9.14597			  -0.28953			 -0.14398
	62.50			  8.92836			  -0.08191			 -0.12737
	62.75			  8.70258			  0.28382			 -0.29922
	63.00			  8.32282			  -0.02512			 -0.07794
	63.25			  8.40212			  0.02486			 -0.19001
	63.50			  8.71702			  0.06711			 -0.00052
	63.75			  9.01394			  0.18932			 -0.03845
	64.00			  8.87400			  0.11458			 -0.02581
	64.25			  8.89730			  0.09096			 -0.08702
	64.50			  8.93600			  0.17773			 -0.20392
	64.75			  8.86609			  0.37127			 -0.43928
	65.00			  9.37598			  0.17955			 -0.33755
	65.25			  9.13208			  0.26042			 -0.31031
	65.50			  9.08289			  0.24247			 -0.33554
	65.75			  9.29314			  0.22771			 -0.70683
	66.00			  9.77482			  0.10550			 -0.61665
	66.25			  9.66622			  0.21294			 -0.59705
	66.50			  9.64565			  0.41829			 -0.62148
	66.75			  9.74334			  0.59139			 -0.30910
	67.00			  9.82646			  0.64613			 -0.38790
	67.25			  9.58187			  0.71678			 -0.17754
	67.50			  9.41427			  0.21340			 -0.28669
	67.75			  9.85780			  0.13775			 -0.04863
	68.00			  9.89146			  0.15411			 0.29168
	68.25			  9.70696			  0.32198			 -0.24485
	68.50			  9.49576			  0.44033			 -0.18019
	68.75			  9.30499			  0.41738			 -0.33094
	69.00			  9.19339			  0.31039			 -0.22191
	69.25			  9.17895			  0.37059			 0.16340
	69.50			  9.23890			  0.34833			 0.22996
	69.75			  9.44520			  0.18750			 0.21231
	70.00			  9.97335			  0.11186			 -0.01110
	70.25			  9.88955			  0.10391			 0.07104
	70.50			  9.98630			  0.19681			 0.18852
	70.75			  9.94924			  0.12708			 0.05494
	71.00			  10.13959			  0.17364			 -0.08455
	71.25			  10.09149			  0.08823			 -0.18915
	71.50			  10.12460			  -0.15278			 -0.21484
	71.75			  10.08672			  0.05166			 -0.57768
	72.00			  10.21304			  -0.01717			 -0.81483
	72.25			  10.47793			  -0.22593			 -1.07726
	72.50			  10.54620			  -0.04783			 -1.09237
	72.75			  10.49524			  -0.18822			 -0.85621
	73.00			  10.56609			  -0.17777			 -0.82925
	73.25			  10.33472			  -0.22161			 -0.51722
	73.50			  10.30474			  -0.28294			 -0.51417
	73.75			  10.40762			  -0.14756			 -0.14139
	74.00			  10.10485			  -0.57416			 -0.18042
	74.25			  10.30243			  -0.33542			 -0.03046
	74.50			  10.71094			  -0.45604			 -0.34077
	74.75			  10.45504			  -0.62618			 -0.41762
	75.00			  10.48815			  -0.57552			 -0.50268
	75.25			  10.54524			  -0.51941			 -0.35215
	75.50			  10.57495			  -0.20980			 -0.33261
	75.75			  10.50341			  -0.77565			 -0.18007
	76.00			  10.33595			  -0.61073			 -0.00403
	76.25			  10.22408			  -0.78996			 -0.21071
	76.50			  10.14981			  -1.04983			 0.35537
	76.75			  10.02936			  -1.00053			 0.26938
	77.00			  9.84867			  -0.98077			 0.38588
	77.25			  10.08686			  -0.57348			 0.32623
	77.50			  9.97608			  -0.91898			 0.27611
	77.75			  9.81556			  -1.13069			 0.21530
	78.00			  9.74021			  -0.95351			 0.23881
	78.25			  9.90359			  -0.92057			 0.23587
	78.50			  10.20609			  -1.11956			 -0.00782
	78.75			  10.12242			  -0.88854			 -0.07564
	79.00			  9.81624			  -0.89854			 -0.01604
	79.25			  9.96886			  -0.65480			 0.04328
	79.50			  9.72222			  -0.74498			 -0.17203
	79.75			  9.98112			  -0.80313			 0.17179
	80.00			  9.84404			  -0.49897			 0.14932
	80.25			  9.48445			  -0.41696			 0.01350
	80.50			  9.39574			  -0.36267			 -0.31031
	80.75			  9.29613			  -0.46739			 -0.37198
	81.00			  9.66350			  -0.48420			 -0.23191
	81.25			  9.51810			  -0.19844			 -0.26830
	81.50			  9.28496			  -0.17118			 -0.36623
	81.75			  9.15606			  -0.19276			 -0.30680
	82.00			  9.47464			  -0.25023			 -0.18984
	82.25			  9.36931			  -0.10099			 -0.15731
	82.50			  9.49944			  -0.21298			 -0.22674
	82.75			  9.47559			  -0.30157			 -0.29347
	83.00			  9.68802			  -0.19072			 -0.17283
	83.25			  9.86748			  -0.39675			 -0.14679
	83.50			  9.87320			  -0.32678			 -0.02127
	83.75			  9.98453			  -0.14506			 -0.09053
	84.00			  9.53500			  -0.42605			 -0.08639
	84.25			  9.35800			  -0.52691			 -0.08846
	84.50			  9.44902			  -0.74135			 -0.46773
	84.75			  9.57206			  -0.52873			 -0.59608
	85.00			  9.51892			  -0.40970			 -0.85718
	85.25			  9.67167			  -0.47148			 -0.57107
	85.50			  9.78967			  -0.54372			 -0.28289
	85.75			  9.66036			  -0.72045			 -0.28094
	86.00			  9.48322			  -0.79314			 -0.09616
	86.25			  9.78940			  -0.86015			 -0.23531
	86.50			  9.97690			  -0.91921			 -0.04110
	86.75			  9.67181			  -0.90694			 0.05770
	87.00			  9.65736			  -0.84856			 0.09064
	87.25			  9.85058			  -1.06891			 0.09696
	87.50			  9.66459			  -1.23859			 -0.07535
	87.75			  9.75901			  -1.12070			 -0.07627
	88.00			  9.80357			  -1.03461			 -0.06460
	88.25			  9.96736			  -1.04733			 0.00678
	88.50			  9.69552			  -0.97236			 -0.32089
	88.75			  9.84091			  -1.22792			 -0.50348
	89.00			  9.99366			  -0.78155			 -0.25019
	89.25			  9.77400			  -0.50783			 -0.16271
	89.50			  10.00837			  -0.50056			 -0.17162
	89.75			  10.28280			  -0.72862			 -0.11001
	90.00			  10.16030			  -0.56893			 0.38456
	90.25			  9.90972			  -0.30452			 0.16892
	90.50			  9.98180			  -0.19117			 0.45497
	90.75			  10.15853			  -0.22502			 0.43278
	91.00			  10.19723			  -0.03557			 0.53158
	91.25			  10.06574			  -0.25455			 0.37864
	91.50			  9.95210			  -0.18890			 0.37014
	91.75			  10.05375			  -0.37403			 0.29864
	92.00			  10.10893			  -0.31134			 0.19863
	92.25			  10.02909			  -0.12825			 0.35261
	92.50			  10.17448			  -0.07214			 0.43244
	92.75			  10.33622			  -0.41424			 0.41399
	93.00			  10.03317			  -0.46308			 0.39117
	93.25			  10.28498			  -0.19844			 0.28191
	93.50			  10.23906			  -0.32633			 0.19191
	93.75			  10.14600			  -0.15710			 0.18944
	94.00			  10.19437			  -0.14733			 0.09230
	94.25			  10.19464			  0.01123			 0.13868
	94.50			  10.14286			  -0.20480			 -0.05207
	94.75			  10.22503			  0.04757			 0.07075
	95.00			  10.30174			  0.13321			 0.01655
	95.25			  10.41021			  0.22839			 -0.16743
	95.50			  10.41607			  0.47236			 -0.29008
	95.75			  10.46812			  0.27927			 -0.29370
	96.00			  10.25678			  -0.10644			 -0.35618
	96.25			  10.39985			  -0.08622			 -0.22393
	96.50			  10.23893			  -0.01149			 -0.29157
	96.75			  10.08863			  -0.27340			 -0.36474
	97.00			  10.04394			  -0.26273			 -0.00920
	97.25			  10.03181			  0.00350			 0.47894
	97.50			  9.79172			  -0.31929			 0.46894
	97.75			  9.72972			  -0.22524			 0.38652
	98.00			  9.63188			  0.03394			 -0.06777
	98.25			  9.58719			  0.12935			 -0.15909
	98.50			  9.53568			  0.37627			 -0.23295
	98.75			  9.54181			  0.20499			 -0.04144
	99.00			  9.67549			  0.06620			 -0.29295
	99.25			  9.37721			  0.06188			 0.03874
	99.50			  9.69661			  0.14570			 0.20892
	99.75			  9.70206			  -0.41151			 -0.05035
	100.00			  9.47941			  -0.51260			 0.19949
	100.25			  9.87252			  -0.51124			 0.12788
	100.50			  9.86625			  -0.24251			 -0.15524
	100.75			  9.97649			  -0.26613			 0.02316
	101.00			  9.56838			  -0.15664			 0.04259
	101.25			  9.27679			  -0.02898			 0.07403
	101.50			  9.39015			  -0.15278			 -0.36606
	101.75			  9.34764			  -0.09599			 -0.07794
	102.00			  9.47614			  -0.18436			 -0.12892
	102.25			  9.71964			  -0.29703			 -0.17823
	102.50			  9.89487			  -0.05533			 0.16978
	102.75			  9.75874			  -0.09145			 0.16622
	103.00			  9.49889			  0.02758			 0.14685
	103.25			  9.58882			  -0.05578			 -0.07328
	103.50			  9.77714			  0.19386			 0.05069
	103.75			  9.59686			  0.59934			 0.15409
	104.00			  9.73394			  0.47940			 0.06983
	104.25			  9.84159			  0.10981			 -0.08156
	104.50			  9.92062			  0.45759			 -0.06012
	104.75			  9.73340			  0.52574			 0.17116
	105.00			  9.79581			  0.76766			 0.31536
	105.25			  9.82728			  0.74790			 0.31525
	105.50			  9.67862			  0.69452			 0.28663
	105.75			  9.87497			  0.58593			 0.46618
	106.00			  9.70560			  0.51779			 0.45325
	106.25			  9.43471			  0.66362			 -0.00621
	106.50			  9.34219			  0.14525			 -0.00644
	106.75			  9.25457			  0.07256			 0.12070
	107.00			  9.27842			  0.06802			 0.02569
	107.25			  9.38784			  -0.09531			 0.00115
	107.50			  9.20811			  -0.47262			 -0.07915
	107.75			  9.05100			  -0.69046			 -0.00575
	108.00			  8.99036			  -1.03347			 0.15690
	108.25			  9.12063			  -0.76724			 0.04328
	108.50			  9.50203			  -0.86401			 -0.23088
	108.75			  9.39683			  -1.04233			 -0.10846
	109.00			  9.61185			  -1.06323			 -0.20869
	109.25			  9.51497			  -1.01257			 -0.02702
	109.50			  9.48513			  -0.97236			 0.13208
	109.75			  9.66527			  -0.77451			 -0.02213
	110.00			  9.76705			  -0.58506			 -0.20823
	110.25			  9.83655			  -1.00530			 0.07920
	110.50			  9.92035			  -0.83334			 0.16668
	110.75			  9.75779			  -0.88877			 0.03351
	111.00			  9.42899			  -0.94124			 -0.04179
	111.25			  9.58160			  -0.88445			 0.06948
	111.50			  9.64156			  -1.02575			 0.41508
	111.75			  9.60558			  -1.02166			 0.16869
	112.00			  9.83941			  -0.92830			 -0.24174
	112.25			  9.78695			  -0.74657			 -0.10110
	112.50			  9.85385			  -0.78746			 -0.17697
	112.75			  9.70587			  -0.81563			 -0.30111
	113.00			  9.39683			  -0.85515			 -0.02949
	113.25			  9.58324			  -0.66797			 -0.12811
	113.50			  9.78109			  -0.57461			 -0.16553
	113.75			  9.68652			  -0.52259			 -0.15754
	114.00			  9.44480			  -0.41696			 -0.01724
	114.25			  9.25090			  -0.60301			 0.34686
	114.50			  8.99241			  -0.67615			 0.74240
	114.75			  8.88204			  -0.66093			 0.71619
	115.00			  8.94690			  -0.94420			 0.89868
	115.25			  9.08738			  -0.32133			 0.56676
	115.50			  9.12826			  0.01441			 0.17662
	115.75			  9.25621			  -0.05828			 0.12610
	116.00			  9.21819			  -0.01808			 0.06397
	116.25			  9.13575			  -0.09281			 0.15874
	116.50			  9.16192			  0.19182			 0.01724
	116.75			  9.11668			  0.30426			 -0.18783
	117.00			  9.23087			  0.11367			 -0.23789
	117.25			  9.69456			  0.06574			 0.02000
	117.50			  9.78749			  0.22589			 0.12897
	117.75			  9.38252			  -0.11053			 0.00960
	118.00			  9.55394			  -0.25750			 -0.15547
	118.25			  9.78640			  -0.35700			 -0.26985
	118.50			  10.14286			  -0.19662			 -0.28381
	118.75			  10.09585			  -0.40924			 -0.13340
	119.00			  10.03999			  -0.79473			 0.01592
	119.25			  10.14205			  -0.48897			 0.19639
	119.50			  10.17734			  -0.54417			 0.37353
	119.75			  9.81911			  -0.78246			 0.46382
	120.00			  9.46837			  -0.65730			 0.46635
	120.25			  9.17527			  -0.47625			 0.74154
	120.50			  9.59237			  -0.34200			 0.35715
	120.75			  9.69538			  -0.48284			 0.16196
	121.00			  9.99911			  -0.52009			 0.31329
	121.25			  10.17993			  -0.50465			 0.08127
	121.50			  10.07160			  -0.21184			 -0.09323
	121.75			  10.26618			  -0.24955			 0.06431
	122.00			  10.22176			  -0.35450			 0.19156
	122.25			  10.04326			  -0.47103			 0.34830
	122.50			  10.05116			  -0.61800			 0.40479
	122.75			  9.77836			  -0.47830			 0.16489
	123.00			  9.70042			  -0.70137			 0.47802
	123.25			  9.44698			  -0.51737			 0.19162
	123.50			  9.54658			  -0.64753			 0.33059
	123.75			  9.35650			  -0.35790			 0.58130
	124.00			  9.41550			  -0.43991			 0.25932
	124.25			  9.41591			  -0.04738			 0.55699
	124.50			  9.04146			  0.25724			 0.48445
	124.75			  9.09978			  -0.01694			 0.57572
	125.00			  9.38729			  -0.04852			 0.41899
	125.25			  9.18971			  -0.40379			 0.69602
	125.50			  9.29068			  -0.06260			 0.79700
	125.75			  9.52614			  0.02440			 0.64286
	126.00			  9.33306			  -0.39493			 0.48779
	126.25			  9.52233			  -0.32792			 0.70740
	126.50			  9.35350			  -0.24523			 0.76022
	126.75			  9.29709			  -0.35518			 0.52204
	127.00			  9.18481			  -0.35881			 0.46187
	127.25			  9.05032			  -0.08895			 0.72246
	127.50			  9.03192			  -0.10053			 0.29209
	127.75			  9.00835			  -0.24296			 0.26369
	128.00			  9.17418			  -0.22434			 0.78286
	128.25			  9.01394			  0.01032			 0.72137
	128.50			  8.93954			  -0.01785			 0.60073
	128.75			  8.81091			  0.07165			 0.55653
	129.00			  8.85724			  0.41375			 0.56090
	129.25			  8.48742			  0.22748			 0.22386
	129.50			  8.25169			  -0.33405			 0.28220
	129.75			  8.05493			  -0.30838			 0.28214
	130.00			  8.20877			  -0.68615			 0.07949
	130.25			  8.53307			  -0.85129			 0.37422
	130.50			  8.36206			  -0.72499			 0.43370
	130.75			  8.66824			  -0.60255			 0.29301
	131.00			  8.33481			  -0.90490			 0.16254
	131.25			  8.59725			  -0.72522			 0.50497
	131.50			  8.58989			  -0.54576			 0.41520
	131.75			  8.73814			  -0.36404			 0.21087
	132.00			  8.63131			  -0.29157			 0.45623
	132.25			  9.07798			  -0.60164			 0.49727
	132.50			  9.24436			  -0.30657			 0.43704
	132.75			  9.05195			  -0.53781			 0.31887
	133.00			  8.93436			  -0.53463			 0.07862
	133.25			  9.08725			  -0.59483			 -0.00288
	133.50			  9.15878			  -0.38017			 0.20748
	133.75			  9.44411			  -0.15460			 0.16748
	134.00			  9.41523			  0.00259			 0.34318
	134.25			  9.02743			  0.21703			 0.55888
	134.50			  8.94676			  0.17819			 0.19334
	134.75			  8.44123			  0.25519			 0.15667
	135.00			  8.57586			  -0.25546			 0.19231
	135.25			  8.62423			  -0.43650			 0.20283
	135.50			  8.68173			  -0.34064			 0.45411
	135.75			  8.39926			  -0.66752			 0.10834
	136.00			  8.37460			  -0.28635			 0.20352
	136.25			  8.46998			  0.01963			 -0.09001
	136.50			  8.81895			  -0.10985			 -0.07656
	136.75			  8.98028			  0.08437			 -0.10541
	137.00			  8.98410			  0.10141			 -0.13024
	137.25			  8.88585			  0.03394			 -0.39802
	137.50			  8.82249			  0.21112			 -0.22019
	137.75			  8.78311			  0.27223			 -0.38779
	138.00			  8.62178			  0.14548			 -0.15271
	138.25			  8.28358			  0.11390			 0.15219
	138.50			  8.43360			  -0.22661			 0.03460
	138.75			  8.27213			  0.08119			 0.04569
	139.00			  8.12578			  0.28359			 0.20116
	139.25			  8.08286			  0.51324			 0.28174
	139.50			  8.02713			  0.55595			 0.21208
	139.75			  7.78118			  0.45123			 0.18386
	140.00			  7.72804			  0.29245			 -0.18553
	140.25			  8.02223			  0.45237			 -0.04018
	140.50			  7.89986			  0.59843			 -0.47170
	140.75			  7.92848			  0.45282			 -0.60740
	141.00			  8.42229			  0.49166			 -0.47193
	141.25			  8.32895			  0.50507			 -0.57349
	141.50			  8.10930			  0.32243			 -0.35819
	141.75			  8.17675			  0.61433			 -0.01334
	142.00			  8.22635			  0.46781			 0.08615
	142.25			  8.45199			  0.34378			 -0.19007
	142.50			  8.26600			  0.96461			 -0.36623
	142.75			  8.40907			  0.65158			 -0.11760
	143.00			  8.48919			  0.88101			 0.21978
	143.25			  8.37732			  0.82945			 0.16662
	143.50			  8.34653			  0.66521			 0.08828
	143.75			  8.17252			  0.34742			 0.06546
	144.00			  8.21694			  0.54391			 0.08224
	144.25			  8.20100			  0.38399			 0.01029
	144.50			  8.54874			  0.27700			 0.01925
	144.75			  8.50922			  0.35015			 -0.10541
	145.00			  8.59275			  0.33038			 0.00172
	145.25			  8.56264			  0.35128			 -0.04374
	145.50			  8.13982			  0.42352			 0.18524
	145.75			  8.37542			  0.28541			 0.04805
	146.00			  7.81633			  0.18705			 0.08334
	146.25			  8.01787			  -0.02353			 0.36824
	146.50			  8.49996			  -0.10985			 0.10966
	146.75			  8.54465			  -0.54531			 0.14690
	147.00			  8.44872			  -0.48988			 0.29450
	147.25			  8.23002			  -0.44831			 0.51348
	147.50			  8.13560			  -0.55599			 0.48060
	147.75			  8.19024			  -0.63322			 0.74660
	148.00			  8.21953			  -0.96192			 0.43158
	148.25			  8.17702			  -1.35558			 -0.25059
	148.50			  8.37855			  -1.11343			 0.01942
	148.75			  8.51018			  -1.16545			 0.02138
	149.00			  8.65625			  -0.94261			 0.16363
	149.25			  8.59262			  -1.22337			 0.15006
	149.50			  8.55078			  -1.22587			 0.25467
	149.75			  8.56741			  -1.09753			 0.34531
	150.00			  8.76349			  -1.02666			 0.28565
	150.25			  8.74632			  -0.83811			 0.21105
	150.50			  9.02252			  -0.42310			 0.22444
	150.75			  8.80246			  -0.55667			 0.42692
	151.00			  8.86323			  -0.74702			 0.46279
	151.25			  8.92033			  -0.63049			 0.18702
	151.50			  8.66402			  -0.37176			 0.38652
	151.75			  8.58226			  -0.51351			 0.18731
	152.00			  8.60829			  -0.71568			 0.22846
	152.25			  8.82453			  -0.39175			 -0.11208
	152.50			  8.97783			  -0.07464			 0.07483
	152.75			  8.63854			  0.18909			 -0.04138
	153.00			  8.89566			  0.00850			 0.10811
	153.25			  9.06776			  0.12571			 0.13966
	153.50			  8.90534			  -0.18345			 -0.13076
	153.75			  8.94145			  -0.47035			 -0.07656
	154.00			  8.91378			  -0.29203			 -0.03012
	154.25			  8.86487			  -0.30202			 -0.14202
	154.50			  8.92237			  -0.05306			 -0.18088
	154.75			  8.67942			  -0.07714			 -0.28853
	155.00			  8.80600			  -0.10099			 -0.38135
	155.25			  8.87332			  -0.24569			 -0.52900
	155.50			  8.81513			  -0.22570			 -0.68332
	155.75			  8.80287			  -0.12916			 -0.67091
	156.00			  8.62464			  -0.21139			 -0.61550
	156.25			  9.05114			  -0.45831			 -0.46262
	156.50			  8.95562			  0.14457			 -0.56814
	156.75			  8.37405			  0.00146			 -0.62487
	157.00			  8.53007			  -0.40992			 -0.67585
	157.25			  8.69972			  -0.04942			 -0.76224
	157.50			  8.80559			  -0.21548			 -0.69148
	157.75			  8.72152			  -0.18731			 -0.71901
	158.00			  8.89294			  -0.40061			 -0.37031
	158.25			  8.77943			  -0.49284			 -0.43854
	158.50			  8.85710			  -0.50283			 -0.16329
	158.75			  8.93000			  -0.47534			 -0.06667
	159.00			  8.96311			  -0.43218			 -0.03592
	159.25			  8.61455			  -0.32906			 -0.13472
	159.50			  8.46903			  -0.50715			 0.10420
	159.75			  8.53130			  -0.34927			 0.21731
	160.00			  8.35920			  -0.70091			 0.20869
	160.25			  8.70449			  -0.59506			 0.18754
	160.50			  8.32609			  -0.39788			 0.04661
	160.75			  8.78652			  -0.03466			 -0.11852
	161.00			  8.87877			  -0.21684			 0.23616
	161.25			  8.87563			  -0.27726			 0.08339
	161.50			  8.93627			  -0.29430			 0.13501
	161.75			  9.03533			  -0.10076			 0.34881
	162.00			  9.37135			  0.10345			 -0.05616
	162.25			  9.51197			  -0.10621			 0.17874
	162.50			  9.35432			  -0.09599			 0.24248
	162.75			  9.38266			  -0.29316			 0.02661
	163.00			  9.30935			  -0.36199			 0.47974
	163.25			  9.36808			  -0.46399			 0.39974
	163.50			  9.63120			  -0.77019			 0.15328
	163.75			  9.49085			  -0.99690			 0.27421
	164.00			  9.03601			  -0.98191			 -0.03621
	164.25			  9.31576			  -0.91035			 -0.22979
	164.50			  9.67167			  -0.52123			 -0.32767
	164.75			  9.54072			  -0.12075			 -0.13030
	165.00			  9.58869			  -0.40016			 0.10248
	165.25			  9.48894			  -0.66093			 0.24300
	165.50			  9.49249			  -0.43673			 0.06920
	165.75			  9.73694			  -0.42242			 -0.25071
	166.00			  9.89732			  -0.21184			 -0.20915
	166.25			  9.78586			  -0.04079			 -0.12921
	166.50			  9.74321			  0.01940			 -0.11461
	166.75			  9.59387			  0.17751			 0.24777
	167.00			  9.12281			  0.16433			 0.41704
	167.25			  9.27801			  -0.02853			 0.52457
	167.50			  9.21261			  0.04780			 0.59682