--------------TurbSim v2.00.* User Time Series Input File-----------------------
     Time series input from low-res turbsim run
--------------------------------------------------------------------------------
          3 nComp - Number of velocity components in the file
          1 nPoints - Number of time series points contained in this file (-)
          1 RefPtID - Index of the reference point (1-nPoints)
     Pointyi Pointzi ! nPoints listed in order of increasing height
       (m)     (m)
       -4.08301   94.00000
--------Time Series-------------------------------------------------------------
Elapsed Time         Point01u             Point01v           Point01w
         (s)            (m/s)                (m/s)              (m/s)
	0.00			  10.20432			  0.60540			 -0.06829
	0.25			  10.21383			  0.67282			 -0.00595
	0.50			  10.35286			  0.59667			 0.11893
	0.75			  10.47367			  0.49099			 0.19334
	1.00			  10.37655			  0.53631			 0.20656
	1.25			  10.42172			  0.52293			 0.02543
	1.50			  10.26851			  0.47056			 -0.25716
	1.75			  10.27212			  0.43861			 -0.27499
	2.00			  10.34943			  0.52349			 -0.28781
	2.25			  10.36959			  0.39626			 -0.35407
	2.50			  10.28858			  0.34277			 -0.46755
	2.75			  10.17130			  0.30210			 -0.14408
	3.00			  10.36730			  0.23375			 -0.17669
	3.25			  10.45148			  0.46368			 -0.18352
	3.50			  10.34423			  0.47427			 0.01768
	3.75			  10.30038			  0.62583			 0.01406
	4.00			  10.40146			  0.50938			 -0.10935
	4.25			  10.28911			  0.56045			 0.05988
	4.50			  10.22572			  0.49470			 0.16264
	4.75			  10.30655			  0.42431			 0.10021
	5.00			  10.24905			  0.42877			 0.10808
	5.25			  10.41423			  0.39478			 0.23155
	5.50			  10.36642			  0.52999			 0.24507
	5.75			  10.42489			  0.47483			 0.09034
	6.00			  10.42885			  0.36525			 -0.05805
	6.25			  10.49031			  0.52201			 0.09671
	6.50			  10.44646			  0.36859			 -0.00018
	6.75			  10.43959			  0.33850			 0.07654
	7.00			  10.42480			  0.41799			 -0.08996
	7.25			  10.18433			  0.41967			 -0.06223
	7.50			  10.24289			  0.42041			 0.05813
	7.75			  10.27846			  0.22817			 0.13814
	8.00			  10.25812			  0.15685			 -0.07345
	8.25			  10.24694			  0.08739			 -0.08544
	8.50			  10.30505			  -0.04838			 0.04833
	8.75			  10.36193			  -0.07643			 -0.07477
	9.00			  10.36712			  -0.02609			 0.04172
	9.25			  10.40816			  0.02034			 -0.07151
	9.50			  10.43334			  -0.02368			 0.03523
	9.75			  10.42770			  0.01904			 -0.06371
	10.00			  10.42154			  0.10318			 0.00351
	10.25			  10.50087			  -0.04318			 -0.06798
	10.50			  10.44232			  0.05879			 -0.07886
	10.75			  10.45729			  0.16930			 0.19088
	11.00			  10.54182			  0.31826			 0.19983
	11.25			  10.46724			  0.33739			 0.21289
	11.50			  10.20784			  0.29782			 0.05782
	11.75			  10.22959			  0.33757			 0.10301
	12.00			  10.32160			  0.10912			 0.23434
	12.25			  10.28233			  0.17784			 0.24418
	12.50			  10.21735			  0.26866			 0.10968
	12.75			  10.09434			  0.34723			 -0.00737
	13.00			  9.97794			  0.48932			 -0.21591
	13.25			  9.81831			  0.48114			 -0.15112
	13.50			  9.99080			  0.40444			 -0.06973
	13.75			  9.84807			  0.25139			 -0.00786
	14.00			  9.77234			  0.28018			 -0.18386
	14.25			  9.78529			  0.17821			 -0.28910
	14.50			  9.88989			  0.20273			 -0.21656
	14.75			  9.92511			  0.32141			 -0.20510
	15.00			  9.96218			  0.58404			 -0.06823
	15.25			  9.94378			  0.56955			 -0.12109
	15.50			  9.98939			  0.56900			 -0.06229
	15.75			  9.97521			  0.78073			 -0.05252
	16.00			  9.90187			  0.90387			 -0.02569
	16.25			  9.91322			  0.81156			 0.00505
	16.50			  9.85106			  0.70551			 -0.15496
	16.75			  9.81839			  0.68062			 -0.11178
	17.00			  9.84648			  0.67654			 -0.23887
	17.25			  9.70138			  0.74080			 -0.19363
	17.50			  9.75834			  0.80859			 -0.11212
	17.75			  9.98789			  0.91929			 -0.06521
	18.00			  9.98992			  0.87620			 0.00268
	18.25			  9.93770			  0.63679			 0.08699
	18.50			  9.71115			  0.53631			 0.02401
	18.75			  9.91393			  0.50176			 0.12225
	19.00			  9.83222			  0.53538			 0.09766
	19.25			  9.98595			  0.38846			 0.05367
	19.50			  10.05085			  0.45904			 0.17668
	19.75			  10.11328			  0.54949			 0.12372
	20.00			  10.13872			  0.58125			 0.18947
	20.25			  10.11548			  0.54392			 0.06474
	20.50			  9.92819			  0.46740			 0.19180
	20.75			  9.90944			  0.40889			 0.38222
	21.00			  10.04997			  0.42951			 0.26010
	21.25			  10.01228			  0.20552			 0.30707
	21.50			  9.80774			  0.13624			 0.18981
	21.75			  9.86277			  0.11358			 -0.01490
	22.00			  9.86004			  0.16595			 0.09440
	22.25			  9.94941			  0.15648			 0.10230
	22.50			  9.93216			  -0.02647			 -0.06543
	22.75			  9.74637			  0.07216			 -0.03392
	23.00			  9.90803			  -0.09649			 -0.03881
	23.25			  10.00973			  -0.07569			 -0.07459
	23.50			  9.84190			  -0.07383			 -0.18638
	23.75			  9.86304			  0.00808			 -0.02950
	24.00			  9.78582			  -0.11265			 -0.08768
	24.25			  9.56314			  -0.12843			 -0.25384
	24.50			  9.63041			  -0.00492			 -0.31599
	24.75			  9.78943			  0.03223			 -0.08310
	25.00			  9.65656			  -0.08460			 -0.00497
	25.25			  9.64141			  0.03055			 -0.06567
	25.50			  9.78053			  0.11061			 0.04744
	25.75			  9.80475			  -0.09017			 -0.10065
	26.00			  9.92097			  -0.10132			 -0.02194
	26.25			  9.85168			  -0.01291			 -0.05827
	26.50			  9.74073			  0.12342			 0.04203
	26.75			  9.93709			  -0.06584			 -0.10914
	27.00			  9.97072			  -0.12286			 -0.24739
	27.25			  9.87351			  -0.29708			 -0.25188
	27.50			  9.92247			  -0.37509			 -0.30078
	27.75			  9.83662			  -0.38326			 -0.33108
	28.00			  9.81505			  -0.53519			 -0.23657
	28.25			  9.67919			  -0.35261			 -0.04047
	28.50			  9.67188			  -0.34649			 -0.06125
	28.75			  9.80175			  -0.25585			 -0.23491
	29.00			  9.95646			  -0.20347			 0.05202
	29.25			  10.04600			  -0.11748			 0.02371
	29.50			  10.10060			  -0.14014			 -0.00110
	29.75			  10.05763			  0.01049			 0.01433
	30.00			  9.94343			  0.04486			 0.19515
	30.25			  9.90803			  -0.08683			 0.28905
	30.50			  9.73792			  0.04021			 0.28174
	30.75			  9.85775			  -0.10986			 0.04052
	31.00			  9.81927			  0.00009			 0.04292
	31.25			  9.71071			  -0.02498			 0.06354
	31.50			  9.57405			  -0.00715			 0.11306
	31.75			  9.57265			  0.07884			 0.03324
	32.00			  9.64229			  0.02814			 0.05893
	32.25			  9.47658			  -0.01792			 0.00517
	32.50			  9.53558			  -0.02015			 0.09010
	32.75			  9.60654			  -0.08646			 -0.01361
	33.00			  9.58092			  -0.04263			 0.30627
	33.25			  9.71555			  -0.12695			 0.33273
	33.50			  9.72893			  0.01068			 0.24421
	33.75			  9.65550			  0.06343			 0.28242
	34.00			  9.68702			  0.29782			 0.04479
	34.25			  9.66193			  0.20830			 0.18750
	34.50			  9.76715			  -0.01569			 0.11997
	34.75			  9.90063			  -0.16279			 0.08496
	35.00			  9.70895			  -0.21796			 0.17023
	35.25			  9.79788			  -0.36710			 0.12486
	35.50			  9.87589			  -0.30079			 0.19897
	35.75			  9.76433			  -0.16224			 0.10946
	36.00			  9.83178			  -0.20570			 0.12093
	36.25			  9.96394			  -0.07606			 -0.01152
	36.50			  9.96870			  0.01272			 -0.21638
	36.75			  9.85133			  -0.15834			 -0.21398
	37.00			  9.75051			  -0.11989			 -0.13354
	37.25			  9.86039			  -0.17115			 0.01805
	37.50			  9.90662			  -0.10763			 0.13331
	37.75			  9.68033			  -0.27033			 0.22159
	38.00			  9.64000			  -0.41651			 0.19672
	38.25			  9.58462			  -0.38122			 -0.05584
	38.50			  9.75033			  -0.31844			 0.07906
	38.75			  9.79805			  -0.31993			 -0.01115
	39.00			  9.62292			  -0.01514			 -0.09952
	39.25			  9.49252			  -0.01997			 -0.08784
	39.50			  9.73105			  -0.08256			 -0.18567
	39.75			  9.73316			  -0.13995			 -0.08897
	40.00			  9.84525			  -0.12955			 0.03428
	40.25			  10.03553			  -0.07866			 0.03151
	40.50			  10.06353			  0.06659			 -0.00472
	40.75			  9.97909			  0.02610			 -0.01142
	41.00			  10.02073			  -0.00195			 0.21443
	41.25			  10.02135			  0.05191			 0.24983
	41.50			  10.00700			  -0.01105			 0.09701
	41.75			  10.01272			  -0.14069			 0.03422
	42.00			  10.15034			  -0.31770			 0.15913
	42.25			  10.16910			  -0.31695			 0.25500
	42.50			  10.34978			  -0.43935			 0.31844
	42.75			  10.23100			  -0.31175			 0.27621
	43.00			  10.05657			  -0.27925			 0.18455
	43.25			  9.87483			  -0.23226			 0.14988
	43.50			  10.00392			  -0.23635			 0.22067
	43.75			  10.07735			  -0.38438			 0.21393
	44.00			  10.22008			  -0.49396			 0.20020
	44.25			  10.21462			  -0.58961			 0.25611
	44.50			  10.26226			  -0.57067			 0.12517
	44.75			  10.13326			  -0.62936			 -0.08741
	45.00			  10.20300			  -0.55989			 -0.00168
	45.25			  10.42858			  -0.55562			 -0.02667
	45.50			  10.39891			  -0.41818			 -0.02578
	45.75			  10.22131			  -0.32940			 0.08048
	46.00			  10.27626			  -0.24489			 0.09345
	46.25			  10.06115			  -0.13623			 0.35631
	46.50			  9.99485			  -0.06788			 0.19497
	46.75			  9.90900			  -0.04578			 0.15025
	47.00			  10.00119			  0.04467			 0.39906
	47.25			  9.94853			  0.00492			 0.17435
	47.50			  9.87792			  -0.03241			 0.11210
	47.75			  9.83970			  0.12974			 0.14419
	48.00			  9.75958			  0.15072			 0.24418
	48.25			  9.78080			  0.02145			 0.07316
	48.50			  9.78582			  -0.01867			 0.01479
	48.75			  9.79462			  0.11358			 0.00788
	49.00			  9.88610			  0.01941			 0.01307
	49.25			  9.82940			  0.01978			 0.01873
	49.50			  9.97600			  -0.12119			 0.31002
	49.75			  9.92987			  -0.11748			 0.27144
	50.00			  9.85687			  -0.19493			 0.09858
	50.25			  9.73272			  -0.38438			 0.05561
	50.50			  9.66686			  -0.33478			 0.04860
	50.75			  9.68799			  -0.30042			 0.23462
	51.00			  9.74223			  -0.13029			 0.32668
	51.25			  9.99520			  0.02275			 0.33863
	51.50			  9.91182			  0.04727			 0.23228
	51.75			  9.78846			  0.11061			 0.20782
	52.00			  9.73501			  0.02777			 0.42672
	52.25			  9.59906			  0.06566			 0.36734
	52.50			  9.47737			  0.12881			 0.45767
	52.75			  9.45290			  0.32921			 0.24126
	53.00			  9.47473			  0.43100			 0.24833
	53.25			  9.48275			  0.43360			 0.10341
	53.50			  9.70138			  0.21629			 0.26517
	53.75			  9.76724			  0.19028			 0.26090
	54.00			  9.69873			  0.30284			 0.20416
	54.25			  9.64088			  0.38456			 0.20628
	54.50			  9.68667			  0.31064			 -0.06340
	54.75			  9.58682			  0.36172			 0.02856
	55.00			  9.65876			  0.34834			 0.20634
	55.25			  9.78449			  0.38456			 0.14659
	55.50			  9.84868			  0.39013			 0.28718
	55.75			  9.84851			  0.22483			 0.12990
	56.00			  9.87616			  0.20199			 0.03520
	56.25			  9.89112			  0.06677			 -0.03795
	56.50			  9.72189			  0.03130			 0.03751
	56.75			  9.74963			  -0.18898			 0.19460
	57.00			  9.86665			  -0.17301			 0.05245
	57.25			  9.90847			  -0.17227			 -0.06285
	57.50			  9.95258			  -0.07866			 0.01525
	57.75			  10.00524			  -0.01625			 0.00431
	58.00			  10.13361			  -0.10652			 -0.27677
	58.25			  10.05974			  -0.04170			 -0.26574
	58.50			  10.11055			  -0.03501			 -0.04376
	58.75			  10.15545			  -0.16502			 -0.20036
	59.00			  10.26067			  0.02572			 -0.20297
	59.25			  10.16584			  0.14144			 -0.17467
	59.50			  10.09901			  -0.09909			 -0.10277
	59.75			  10.13071			  -0.19864			 -0.03073
	60.00			  10.02628			  0.11209			 -0.12180
	60.25			  10.12860			  -0.03891			 -0.10483
	60.50			  10.03887			  -0.11952			 -0.28655
	60.75			  9.99899			  -0.03130			 0.01661
	61.00			  10.07216			  -0.07847			 -0.09417
	61.25			  10.08325			  -0.11506			 0.00527
	61.50			  10.08167			  -0.21090			 -0.06073
	61.75			  9.99467			  -0.29485			 -0.16760
	62.00			  10.13846			  -0.21926			 -0.09623
	62.25			  10.25442			  -0.16354			 -0.13081
	62.50			  10.28445			  -0.21926			 -0.28609
	62.75			  10.27018			  -0.02387			 -0.32718
	63.00			  10.23082			  -0.29392			 -0.49070
	63.25			  10.34608			  -0.24025			 -0.32703
	63.50			  10.17729			  -0.08943			 -0.16996
	63.75			  10.12217			  -0.09166			 0.02660
	64.00			  9.98587			  -0.12193			 0.08398
	64.25			  10.25715			  -0.09389			 -0.10179
	64.50			  10.17931			  -0.01551			 -0.22323
	64.75			  10.15695			  -0.10912			 -0.04717
	65.00			  10.17729			  -0.32030			 -0.02089
	65.25			  10.06221			  -0.33200			 0.02463
	65.50			  10.10077			  -0.38382			 0.06920
	65.75			  10.12446			  -0.35336			 0.10242
	66.00			  10.21198			  -0.14589			 0.09302
	66.25			  10.11583			  -0.28779			 0.00112
	66.50			  10.04917			  -0.30265			 0.17023
	66.75			  10.05455			  -0.21610			 0.15738
	67.00			  9.84437			  -0.06231			 0.05380
	67.25			  9.88487			  0.14497			 0.15550
	67.50			  9.82553			  0.36803			 0.33599
	67.75			  9.88082			  0.47631			 0.27618
	68.00			  9.78925			  0.49359			 0.22552
	68.25			  9.83785			  0.46164			 0.27688
	68.50			  9.99758			  0.47427			 0.20570
	68.75			  10.29607			  0.47539			 0.22340
	69.00			  10.31606			  0.45403			 0.28718
	69.25			  10.15968			  0.26124			 0.17428
	69.50			  10.16725			  0.34686			 0.15633
	69.75			  10.08475			  0.29690			 0.13288
	70.00			  10.05719			  0.22650			 0.18812
	70.25			  10.02883			  0.32067			 0.16838
	70.50			  9.92062			  0.21573			 0.08881
	70.75			  10.03614			  -0.02888			 0.08106
	71.00			  10.11301			  -0.27126			 0.17690
	71.25			  10.19287			  -0.11190			 0.21698
	71.50			  10.16408			  0.00399			 0.19377
	71.75			  10.11785			  0.06751			 0.22632
	72.00			  10.07814			  0.09370			 0.20570
	72.25			  10.14709			  0.02925			 0.09388
	72.50			  10.29158			  -0.00826			 -0.01438
	72.75			  10.40182			  -0.24619			 0.04845
	73.00			  10.40014			  -0.03594			 0.11911
	73.25			  10.25697			  0.06361			 0.14653
	73.50			  10.38773			  0.07420			 0.19568
	73.75			  10.23276			  0.07197			 0.26634
	74.00			  10.20767			  0.05136			 0.42666
	74.25			  10.20995			  0.05637			 0.44320
	74.50			  10.22070			  -0.03297			 0.48528
	74.75			  10.19481			  -0.02071			 0.43558
	75.00			  10.24852			  -0.12732			 0.23032
	75.25			  10.21603			  -0.10466			 0.17432
	75.50			  10.29501			  0.01347			 0.23634
	75.75			  10.26102			  0.06529			 0.18633
	76.00			  10.13793			  0.11413			 0.16325
	76.25			  9.98604			  -0.06083			 -0.02366
	76.50			  9.87977			  -0.00789			 -0.12736
	76.75			  9.88065			  0.04374			 -0.17590
	77.00			  9.81998			  0.05377			 -0.02218
	77.25			  9.75104			  0.22687			 0.06391
	77.50			  9.91331			  0.08312			 0.12741
	77.75			  9.93612			  0.09779			 0.15320
	78.00			  9.95514			  0.15722			 0.15295
	78.25			  10.03632			  -0.00009			 0.07559
	78.50			  10.10095			  -0.06268			 0.22143
	78.75			  9.87598			  -0.18471			 0.26766
	79.00			  9.87369			  -0.24860			 0.07448
	79.25			  9.96183			  -0.21610			 0.13153
	79.50			  9.82297			  -0.05581			 0.19829
	79.75			  9.87897			  0.00957			 0.06612
	80.00			  9.87413			  -0.09073			 0.03379
	80.25			  9.87299			  -0.04875			 0.08367
	80.50			  9.66624			  -0.11450			 0.04535
	80.75			  9.46276			  0.03817			 0.08681
	81.00			  9.66800			  0.07884			 0.04836
	81.25			  9.81690			  0.12509			 0.20748
	81.50			  9.82218			  -0.07271			 0.19577
	81.75			  9.61007			  -0.24210			 0.33774
	82.00			  9.46971			  -0.16818			 0.11275
	82.25			  9.62838			  0.12844			 0.22137
	82.50			  9.58083			  0.09240			 0.17708
	82.75			  9.54456			  -0.02591			 -0.10643
	83.00			  9.59175			  -0.10856			 0.04190
	83.25			  9.52087			  -0.06287			 0.10012
	83.50			  9.44550			  -0.05711			 0.07249
	83.75			  9.25522			  0.11321			 0.09664
	84.00			  9.32434			  0.11209			 0.07018
	84.25			  9.42481			  0.05711			 -0.04207
	84.50			  9.48671			  0.05674			 0.15455
	84.75			  9.45219			  0.12936			 0.23751
	85.00			  9.56049			  0.15165			 0.23422
	85.25			  9.67003			  0.18806			 0.28186
	85.50			  9.58726			  0.18174			 0.22512
	85.75			  9.60734			  -0.11228			 0.32763
	86.00			  9.63736			  -0.08943			 0.31097
	86.25			  9.78784			  -0.14014			 0.21341
	86.50			  9.84164			  -0.33497			 0.27753
	86.75			  9.61007			  -0.34110			 0.30986
	87.00			  9.67848			  -0.30915			 0.42497
	87.25			  9.68341			  -0.20867			 0.28509
	87.50			  9.72330			  -0.06454			 0.42559
	87.75			  9.74558			  0.01124			 0.35428
	88.00			  9.70877			  -0.10262			 0.20016
	88.25			  9.61324			  -0.12769			 0.18243
	88.50			  9.69134			  -0.02108			 0.04817
	88.75			  9.81470			  -0.15388			 0.25282
	89.00			  9.89341			  -0.06733			 0.19811
	89.25			  10.01862			  -0.01829			 0.12449
	89.50			  10.08105			  -0.03352			 0.27787
	89.75			  10.15536			  -0.20533			 0.24735
	90.00			  10.13388			  -0.35206			 0.28893
	90.25			  10.07911			  -0.36487			 0.22482
	90.50			  10.16831			  -0.48096			 0.21778
	90.75			  10.10412			  -0.27906			 0.34512
	91.00			  10.05331			  -0.31435			 0.23158
	91.25			  10.29862			  -0.42449			 0.17284
	91.50			  10.31694			  -0.50324			 0.16070
	91.75			  10.20344			  -0.55414			 0.28199
	92.00			  10.06335			  -0.45718			 0.04716
	92.25			  10.16346			  -0.35893			 -0.12011
	92.50			  10.15008			  -0.44697			 -0.13265
	92.75			  10.24280			  -0.35391			 0.05567
	93.00			  10.23963			  -0.23857			 -0.05719
	93.25			  10.28004			  -0.17951			 -0.19148
	93.50			  10.28726			  -0.21220			 -0.21487
	93.75			  10.38297			  -0.23950			 -0.15727
	94.00			  10.30320			  -0.31138			 -0.16495
	94.25			  10.02655			  -0.57364			 -0.08261
	94.50			  9.95197			  -0.37732			 0.13928
	94.75			  10.05692			  -0.30600			 0.04061
	95.00			  10.02390			  -0.10893			 0.13282
	95.25			  9.85846			  -0.20496			 -0.04791
	95.50			  9.86568			  -0.25975			 -0.14464
	95.75			  9.85036			  -0.17041			 -0.06146
	96.00			  9.75244			  -0.33460			 -0.03561
	96.25			  9.79629			  -0.18935			 0.01744
	96.50			  9.90072			  -0.09779			 0.08066
	96.75			  9.82324			  -0.16019			 -0.02695
	97.00			  9.90072			  -0.07234			 -0.09995
	97.25			  9.84587			  -0.04820			 -0.02529
	97.50			  10.04354			  0.13289			 -0.03017
	97.75			  10.04090			  0.02851			 -0.08989
	98.00			  10.15087			  0.09110			 -0.03632
	98.25			  9.96438			  0.13122			 -0.03294
	98.50			  9.94880			  0.11116			 -0.26226
	98.75			  10.02972			  0.04448			 -0.10763
	99.00			  9.88822			  0.12175			 -0.18469
	99.25			  9.88663			  0.07680			 -0.11922
	99.50			  10.00797			  -0.16131			 0.03714
	99.75			  10.06590			  -0.34797			 0.12895
	100.00			  10.16831			  -0.24507			 0.08214
	100.25			  10.00444			  -0.15629			 0.14127
	100.50			  10.02655			  -0.27591			 0.21015
	100.75			  10.09945			  -0.39719			 0.09680
	101.00			  9.92793			  -0.21573			 0.03302
	101.25			  9.94818			  -0.16094			 -0.00110
	101.50			  9.99687			  -0.09054			 0.02583
	101.75			  9.94140			  0.00678			 0.13663
	102.00			  10.16954			  0.09333			 0.00573
	102.25			  10.21277			  0.07160			 0.20514
	102.50			  10.18213			  0.01700			 0.25306
	102.75			  10.27273			  0.02777			 -0.01594
	103.00			  10.17711			  -0.02182			 0.14438
	103.25			  10.10852			  0.05396			 0.03360
	103.50			  10.26868			  0.25139			 0.04058
	103.75			  10.30496			  0.35392			 -0.08442
	104.00			  10.38641			  0.24025			 -0.24656
	104.25			  10.39336			  0.34166			 -0.21797
	104.50			  10.39944			  0.37193			 -0.06906
	104.75			  10.45482			  0.46238			 0.03376
	105.00			  10.26604			  0.48783			 -0.21591
	105.25			  10.23478			  0.29764			 -0.31412
	105.50			  10.26595			  0.15407			 -0.14519
	105.75			  10.26120			  0.23895			 0.02020
	106.00			  10.27943			  -0.00938			 0.11349
	106.25			  10.28057			  -0.23449			 -0.01557
	106.50			  10.19877			  -0.16019			 -0.17540
	106.75			  10.38764			  -0.25436			 -0.25805
	107.00			  10.29087			  -0.15444			 -0.36333
	107.25			  10.41634			  -0.27368			 -0.11448
	107.50			  10.25081			  -0.14311			 -0.21007
	107.75			  10.45931			  -0.05080			 -0.22514
	108.00			  10.63902			  0.02034			 -0.11123
	108.25			  10.77973			  0.04764			 0.04928
	108.50			  10.89155			  -0.05098			 -0.14408
	108.75			  10.77101			  0.02535			 -0.23737
	109.00			  10.73421			  -0.02164			 -0.24960
	109.25			  10.83740			  -0.18490			 -0.28830
	109.50			  10.67504			  -0.15184			 -0.08774
	109.75			  10.78431			  -0.20997			 -0.00310
	110.00			  10.70744			  -0.07364			 -0.09377
	110.25			  10.71440			  0.02907			 0.00923
	110.50			  10.73729			  0.00158			 -0.00079
	110.75			  10.81108			  -0.03705			 -0.09208
	111.00			  10.71924			  0.01291			 -0.08467
	111.25			  10.63929			  -0.16057			 0.06600
	111.50			  10.69661			  -0.18007			 0.22807
	111.75			  10.66306			  -0.26922			 0.06858
	112.00			  10.93355			  -0.24972			 -0.16790
	112.25			  10.91612			  -0.24136			 -0.03408
	112.50			  10.98682			  -0.30061			 0.04587
	112.75			  10.98947			  -0.21480			 0.22451
	113.00			  10.99246			  -0.13363			 0.33839
	113.25			  10.86426			  -0.09166			 0.20170
	113.50			  10.75261			  -0.07866			 0.16377
	113.75			  10.74160			  -0.02071			 0.22780
	114.00			  10.70674			  -0.00826			 0.19174
	114.25			  10.77357			  -0.01384			 0.19552
	114.50			  10.78994			  -0.19716			 0.11081
	114.75			  10.85906			  -0.01198			 0.06554
	115.00			  10.82120			  0.08275			 0.14558
	115.25			  10.61921			  -0.12565			 -0.13028
	115.50			  10.63832			  -0.19808			 0.00785
	115.75			  10.72417			  -0.31194			 -0.12792
	116.00			  10.89464			  -0.17691			 -0.09724
	116.25			  10.95891			  -0.28501			 0.06889
	116.50			  11.03085			  0.03223			 0.04679
	116.75			  11.04009			  0.13326			 0.08315
	117.00			  11.12013			  -0.07699			 0.00926
	117.25			  10.99959			  0.00139			 0.01790
	117.50			  11.00523			  -0.13308			 -0.02249
	117.75			  11.07567			  -0.17840			 -0.12383
	118.00			  11.14760			  -0.27665			 -0.22802
	118.25			  11.03314			  -0.26086			 -0.12266
	118.50			  10.92774			  0.14441			 0.14158
	118.75			  10.94967			  0.25603			 0.06409
	119.00			  10.93787			  0.32327			 0.02368
	119.25			  10.83397			  0.34667			 0.12600
	119.50			  10.79558			  0.40295			 -0.04849
	119.75			  10.63110			  0.45923			 0.01787
	120.00			  10.58707			  0.37862			 0.13494
	120.25			  10.63295			  0.27424			 0.11017
	120.50			  10.50026			  0.39942			 0.01814
	120.75			  10.49726			  0.25901			 0.14505
	121.00			  10.40446			  0.40072			 0.15311
	121.25			  10.56207			  0.31045			 0.24768
	121.50			  10.52676			  0.22000			 0.19629
	121.75			  10.54754			  0.15630			 0.15025
	122.00			  10.68948			  0.22520			 0.22085
	122.25			  10.71035			  0.11376			 0.14822
	122.50			  10.60750			  -0.06101			 0.25528
	122.75			  10.56480			  -0.08312			 0.22356
	123.00			  10.77251			  0.03185			 0.21833
	123.25			  10.80412			  0.13791			 0.19709
	123.50			  10.67389			  0.07253			 0.15790
	123.75			  10.65435			  0.12751			 0.09336
	124.00			  10.66068			  0.06120			 0.08284
	124.25			  10.52474			  0.15722			 -0.02188
	124.50			  10.39812			  0.25121			 -0.08817
	124.75			  10.33992			  0.24136			 -0.03872
	125.00			  10.30302			  0.08720			 0.04141
	125.25			  10.14312			  0.01309			 -0.05596
	125.50			  10.15052			  -0.02182			 0.01141
	125.75			  10.32310			  0.11488			 0.01415
	126.00			  10.43378			  0.31696			 -0.03494
	126.25			  10.39601			  0.21703			 -0.01453
	126.50			  10.49207			  0.38605			 -0.06125
	126.75			  10.59843			  0.28464			 0.00588
	127.00			  10.66914			  0.02034			 -0.20697
	127.25			  10.55318			  0.08776			 -0.31381
	127.50			  10.53777			  0.12602			 -0.29823
	127.75			  10.38236			  0.01421			 -0.21825
	128.00			  10.28268			  -0.10280			 -0.52392
	128.25			  10.19270			  -0.12491			 -0.42240
	128.50			  10.28224			  0.10503			 -0.20350
	128.75			  10.20687			  0.03891			 0.02626
	129.00			  10.19736			  0.03408			 -0.01066
	129.25			  10.10244			  -0.01086			 0.03041
	129.50			  10.12807			  0.02702			 -0.02965
	129.75			  10.15043			  -0.11915			 -0.00712
	130.00			  10.11433			  0.06826			 -0.12079
	130.25			  10.30452			  0.00418			 -0.04576
	130.50			  10.18882			  -0.06194			 -0.25990
	130.75			  10.17958			  -0.09519			 -0.28572
	131.00			  10.05463			  0.11952			 -0.21146
	131.25			  10.03333			  0.20514			 -0.09202
	131.50			  9.90345			  0.37639			 -0.07207
	131.75			  10.03412			  0.22409			 -0.05144
	132.00			  10.12807			  0.09445			 -0.00918
	132.25			  10.11944			  0.12992			 0.04876
	132.50			  10.04222			  0.28241			 0.15255
	132.75			  9.97803			  0.30804			 0.08263
	133.00			  10.01360			  0.21034			 -0.00147
	133.25			  9.98948			  0.17988			 0.08506
	133.50			  9.88179			  0.50417			 0.26831
	133.75			  10.00805			  0.67301			 0.09637
	134.00			  10.10650			  0.57884			 -0.07443
	134.25			  10.08844			  0.46071			 -0.11276
	134.50			  10.14039			  0.37379			 -0.16674
	134.75			  10.25336			  0.48560			 -0.20374
	135.00			  10.40146			  0.38623			 -0.16246
	135.25			  10.32372			  0.38493			 -0.11445
	135.50			  10.24421			  0.25529			 0.11665
	135.75			  10.27670			  0.41521			 0.13912
	136.00			  10.37311			  0.24563			 0.28171
	136.25			  10.47102			  0.25399			 0.22924
	136.50			  10.51153			  0.15611			 0.10504
	136.75			  10.36440			  0.21164			 0.12938
	137.00			  10.28779			  0.19790			 0.00465
	137.25			  10.16804			  0.21369			 -0.12872
	137.50			  10.01792			  0.11989			 -0.16253
	137.75			  10.07048			  0.12491			 -0.16462
	138.00			  10.11926			  0.17635			 -0.14731
	138.25			  10.11733			  -0.09816			 -0.13806
	138.50			  10.14251			  -0.00325			 -0.02719
	138.75			  10.16434			  0.04727			 -0.03979
	139.00			  10.11433			  -0.05711			 0.05063
	139.25			  10.16663			  -0.28482			 -0.06454
	139.50			  10.26287			  -0.20719			 -0.01923
	139.75			  10.16311			  -0.25065			 -0.28833
	140.00			  10.01510			  -0.19010			 -0.27622
	140.25			  9.92133			  0.00938			 -0.19870
	140.50			  9.84252			  -0.02145			 -0.07321
	140.75			  9.86400			  -0.10317			 -0.11817
	141.00			  9.85414			  -0.11302			 0.27507
	141.25			  9.90865			  -0.01514			 0.32456
	141.50			  9.95549			  -0.14626			 0.25076
	141.75			  10.05296			  0.02721			 0.10706
	142.00			  10.11442			  -0.05433			 0.08758
	142.25			  10.20326			  0.03390			 0.07544
	142.50			  10.31914			  0.14199			 -0.07797
	142.75			  10.28946			  0.02851			 -0.07926
	143.00			  10.47596			  -0.15871			 -0.19425
	143.25			  10.47428			  -0.20031			 -0.15315
	143.50			  10.36809			  -0.29188			 -0.13154
	143.75			  10.26490			  -0.25213			 -0.03546
	144.00			  10.29660			  -0.03445			 0.04009
	144.25			  10.23945			  -0.04430			 0.09926
	144.50			  10.35902			  0.03204			 -0.06786
	144.75			  10.39997			  0.10225			 -0.05790
	145.00			  10.49647			  0.04708			 -0.15373
	145.25			  10.51901			  0.04987			 -0.36717
	145.50			  10.50404			  0.12509			 -0.36551
	145.75			  10.47199			  0.12936			 -0.38171
	146.00			  10.54490			  0.22316			 -0.53228
	146.25			  10.49629			  0.18341			 -0.44619
	146.50			  10.33534			  0.25492			 -0.58106
	146.75			  10.45033			  0.13104			 -0.53665
	147.00			  10.43096			  0.12732			 -0.51762
	147.25			  10.28841			  0.14701			 -0.47610
	147.50			  10.55097			  0.06510			 -0.46580
	147.75			  10.63128			  0.14589			 -0.24893
	148.00			  10.71836			  0.06714			 -0.33210
	148.25			  10.71580			  0.00437			 -0.33821
	148.50			  10.68710			  0.19251			 -0.17460
	148.75			  10.80931			  0.20830			 -0.33957
	149.00			  10.68763			  0.05358			 -0.33050
	149.25			  10.66280			  -0.22539			 -0.17712
	149.50			  10.66702			  -0.27739			 -0.15349
	149.75			  10.74513			  -0.13828			 -0.23589
	150.00			  10.83547			  0.09203			 -0.06767
	150.25			  10.75006			  -0.08609			 -0.02719
	150.50			  10.59218			  -0.06250			 -0.11159
	150.75			  10.69723			  0.19084			 -0.18736
	151.00			  10.63946			  0.31268			 -0.26921
	151.25			  10.59394			  0.36320			 -0.09122
	151.50			  10.56797			  0.39255			 -0.12804
	151.75			  10.54014			  0.45700			 -0.20276
	152.00			  10.44399			  0.23523			 -0.13077
	152.25			  10.58250			  0.36729			 -0.18466
	152.50			  10.57897			  0.21592			 -0.14587
	152.75			  10.46979			  0.04300			 -0.23872
	153.00			  10.41273			  0.08219			 -0.12991
	153.25			  10.37540			  0.12936			 -0.15410
	153.50			  10.38227			  0.15630			 -0.27431
	153.75			  10.33023			  -0.04244			 -0.28642
	154.00			  10.39759			  -0.20589			 -0.11590
	154.25			  10.44100			  -0.26105			 0.04092
	154.50			  10.48811			  -0.16149			 0.02856
	154.75			  10.50475			  0.12509			 -0.00177
	155.00			  10.55608			  0.03278			 -0.06985
	155.25			  10.68904			  0.05656			 -0.07969
	155.50			  10.58593			  -0.03687			 0.04897
	155.75			  10.41758			  -0.08590			 0.00696
	156.00			  10.29237			  0.02350			 0.10135
	156.25			  10.14533			  -0.24062			 0.20121
	156.50			  10.00242			  -0.15574			 0.16239
	156.75			  10.14136			  0.03185			 0.10866
	157.00			  10.24861			  0.01830			 0.17382
	157.25			  10.24473			  -0.14348			 0.09422
	157.50			  10.38544			  -0.07346			 0.04919
	157.75			  10.43554			  -0.06361			 -0.09905
	158.00			  10.44831			  -0.10373			 -0.17528
	158.25			  10.51989			  -0.06714			 -0.23657
	158.50			  10.46292			  -0.26681			 -0.10520
	158.75			  10.45799			  -0.26792			 -0.16978
	159.00			  10.46741			  -0.28296			 0.08183
	159.25			  10.46301			  -0.48021			 0.03794
	159.50			  10.37434			  -0.49061			 -0.01690
	159.75			  10.31694			  -0.39310			 -0.03362
	160.00			  10.34265			  -0.36097			 0.04347
	160.25			  10.33058			  -0.27591			 -0.02089
	160.50			  10.36175			  -0.31398			 -0.20814
	160.75			  10.27767			  -0.27275			 -0.09337
	161.00			  10.18900			  -0.26272			 0.09093
	161.25			  10.29255			  -0.40239			 -0.00294
	161.50			  10.26551			  -0.49804			 0.15458
	161.75			  10.25970			  -0.66576			 0.07845
	162.00			  10.30461			  -0.56212			 0.07144
	162.25			  10.31984			  -0.56937			 0.08183
	162.50			  10.34097			  -0.51847			 -0.08402
	162.75			  10.50299			  -0.49860			 -0.00174
	163.00			  10.54596			  -0.62676			 -0.04330
	163.25			  10.50492			  -0.74711			 -0.01287
	163.50			  10.59958			  -0.87081			 -0.00156
	163.75			  10.60653			  -0.87898			 -0.13074
	164.00			  10.52518			  -0.71851			 -0.17402
	164.25			  10.50281			  -0.60317			 -0.15844
	164.50			  10.50774			  -0.58534			 -0.18555
	164.75			  10.44338			  -0.33441			 0.03932
	165.00			  10.49946			  -0.33720			 -0.04354
	165.25			  10.44769			  -0.22892			 -0.09936
	165.50			  10.28621			  -0.00046			 -0.11670
	165.75			  10.23954			  -0.18453			 -0.22258
	166.00			  10.26710			  -0.24990			 -0.12380