--------------TurbSim v2.00.* User Time Series Input File-----------------------
     Time series input from low-res turbsim run
--------------------------------------------------------------------------------
          3 nComp - Number of velocity components in the file
          1 nPoints - Number of time series points contained in this file (-)
          1 RefPtID - Index of the reference point (1-nPoints)
     Pointyi Pointzi ! nPoints listed in order of increasing height
       (m)     (m)
       -0.56486   94.00000
--------Time Series-------------------------------------------------------------
Elapsed Time         Point01u             Point01v           Point01w
         (s)            (m/s)                (m/s)              (m/s)
	0.00			  9.99523			  0.24559			 -0.13042
	0.25			  9.98789			  0.23565			 -0.02676
	0.50			  10.07744			  0.19960			 -0.09800
	0.75			  9.91008			  0.00176			 0.04360
	1.00			  9.69147			  -0.21514			 0.35207
	1.25			  9.80745			  0.06018			 0.39374
	1.50			  9.87791			  0.30090			 0.19438
	1.75			  9.90629			  0.15630			 0.16793
	2.00			  10.22620			  0.23171			 0.24477
	2.25			  10.43245			  0.29158			 0.03310
	2.50			  10.55564			  0.30815			 0.13439
	2.75			  10.34290			  0.48776			 0.15935
	3.00			  10.26338			  0.79705			 -0.03063
	3.25			  9.97884			  0.57249			 -0.12823
	3.50			  9.72193			  0.38894			 -0.01337
	3.75			  10.12343			  0.39454			 0.04798
	4.00			  10.06606			  0.39122			 0.08605
	4.25			  10.02312			  0.23212			 -0.26614
	4.50			  10.07059			  -0.06039			 -0.45047
	4.75			  9.93272			  -0.30733			 -0.00478
	5.00			  10.11781			  -0.55716			 0.18557
	5.25			  9.83950			  -0.57705			 -0.09767
	5.50			  9.88537			  -0.32846			 -0.41263
	5.75			  9.77919			  -0.23606			 -0.26525
	6.00			  9.80023			  -0.41733			 0.05102
	6.25			  9.73221			  -0.71357			 0.01360
	6.50			  9.50235			  -0.41049			 0.02727
	6.75			  9.50932			  -0.34648			 -0.14241
	7.00			  9.54492			  -0.46208			 -0.08078
	7.25			  9.35591			  -0.47575			 -0.01169
	7.50			  9.46601			  -0.62739			 0.07761
	7.75			  9.63434			  -0.63651			 0.00334
	8.00			  9.63031			  -0.29925			 -0.17609
	8.25			  9.82286			  -0.14139			 -0.18277
	8.50			  10.02067			  -0.35435			 -0.12501
	8.75			  10.00428			  -0.33529			 -0.21874
	9.00			  10.08759			  -0.38273			 -0.15445
	9.25			  10.16711			  -0.10721			 -0.11283
	9.50			  10.38168			  -0.41816			 -0.05144
	9.75			  10.29128			  -0.58492			 -0.03893
	10.00			  10.38193			  -0.43784			 -0.26422
	10.25			  10.31917			  -0.35352			 -0.13191
	10.50			  10.23011			  -0.28827			 -0.22849
	10.75			  10.31611			  -0.18365			 -0.10364
	11.00			  10.02055			  -0.05583			 -0.27579
	11.25			  10.15598			  -0.12233			 -0.35655
	11.50			  10.38829			  -0.08918			 -0.20791
	11.75			  10.33018			  -0.35829			 0.08493
	12.00			  10.36113			  -0.58037			 0.07551
	12.25			  10.34682			  -0.33405			 0.23689
	12.50			  10.41973			  -0.00238			 0.17194
	12.75			  10.20442			  -0.06308			 -0.04140
	13.00			  10.13175			  0.33653			 -0.12104
	13.25			  10.21090			  0.22177			 -0.17087
	13.50			  10.21947			  0.00880			 -0.39523
	13.75			  10.12172			  0.35683			 -0.35991
	14.00			  10.29079			  0.57622			 0.10122
	14.25			  10.35599			  0.49128			 0.46717
	14.50			  10.41153			  0.31084			 0.17236
	14.75			  10.32859			  0.25905			 -0.12408
	15.00			  10.23305			  0.35683			 -0.15090
	15.25			  10.41557			  0.34710			 0.01925
	15.50			  10.52885			  0.27293			 -0.01700
	15.75			  10.42597			  0.45855			 0.12650
	16.00			  10.45790			  0.57643			 0.21011
	16.25			  10.42854			  0.74050			 0.11922
	16.50			  10.25042			  0.75376			 0.01939
	16.75			  10.36125			  0.51863			 -0.05092
	17.00			  10.35073			  0.57560			 0.07775
	17.25			  10.06655			  0.51117			 0.06235
	17.50			  10.04061			  0.63795			 0.32511
	17.75			  10.35636			  0.63816			 0.03394
	18.00			  10.34608			  0.51656			 -0.03021
	18.25			  10.42511			  0.25035			 -0.01463
	18.50			  10.63895			  0.41173			 0.14899
	18.75			  10.60910			  0.58533			 0.14866
	19.00			  10.77878			  0.47865			 -0.00310
	19.25			  10.94821			  0.49501			 0.01127
	19.50			  10.71798			  0.35083			 0.19130
	19.75			  10.70440			  0.71730			 0.01411
	20.00			  10.62525			  0.86728			 0.04532
	20.25			  10.49007			  0.64230			 -0.23544
	20.50			  10.55270			  0.61579			 -0.15071
	20.75			  10.47661			  0.77157			 -0.15725
	21.00			  10.13420			  0.58927			 -0.11684
	21.25			  9.80353			  0.67939			 -0.12972
	21.50			  9.62284			  0.46249			 0.04752
	21.75			  9.46075			  0.51096			 0.39374
	22.00			  9.58260			  0.53665			 0.35809
	22.25			  9.66774			  0.68249			 0.21948
	22.50			  9.50124			  0.87101			 0.32772
	22.75			  9.75876			  1.02721			 0.07770
	23.00			  9.68181			  0.95657			 0.01803
	23.25			  9.81307			  0.69782			 0.16476
	23.50			  9.81931			  0.59031			 -0.21039
	23.75			  9.80818			  0.56752			 -0.15743
	24.00			  9.61098			  0.53499			 -0.04047
	24.25			  9.50345			  0.55571			 -0.29217
	24.50			  9.28679			  0.55530			 -0.44300
	24.75			  9.27211			  0.33778			 -0.22858
	25.00			  9.31652			  0.31975			 -0.22643
	25.25			  9.44778			  0.64189			 -0.26161
	25.50			  9.41427			  0.64583			 -0.17983
	25.75			  9.14427			  0.59942			 -0.22564
	26.00			  8.99870			  0.59756			 -0.43848
	26.25			  9.05460			  0.82792			 -0.36868
	26.50			  9.16275			  0.79933			 -0.43866
	26.75			  9.31615			  0.67711			 -0.25783
	27.00			  9.46161			  0.53541			 -0.23562
	27.25			  9.27016			  0.68436			 -0.03035
	27.50			  9.30612			  0.58119			 -0.11750
	27.75			  9.68768			  0.51428			 -0.31134
	28.00			  9.34857			  0.40469			 -0.15897
	28.25			  9.40436			  0.45420			 -0.04098
	28.50			  9.44387			  0.28184			 0.05666
	28.75			  9.75961			  0.28661			 0.05438
	29.00			  9.68878			  0.47657			 -0.08414
	29.25			  9.71753			  0.11093			 0.00684
	29.50			  9.52119			  0.18365			 -0.42065
	29.75			  9.46112			  -0.11052			 -0.69526
	30.00			  9.35469			  -0.03677			 -0.34722
	30.25			  9.55434			  -0.20375			 -0.16807
	30.50			  9.27126			  -0.02061			 -0.29352
	30.75			  9.14085			  0.14035			 -0.14395
	31.00			  9.05546			  0.23772			 -0.13238
	31.25			  8.91221			  -0.12937			 -0.30747
	31.50			  8.88272			  -0.18282			 -0.19914
	31.75			  9.04176			  -0.15506			 -0.07084
	32.00			  8.94426			  -0.00073			 -0.16779
	32.25			  9.01803			  0.11943			 -0.18599
	32.50			  9.27358			  -0.37465			 -0.12254
	32.75			  9.45867			  -0.20209			 -0.11862
	33.00			  9.75105			  -0.02662			 -0.21444
	33.25			  9.64670			  0.22487			 -0.39122
	33.50			  9.95951			  0.03428			 -0.35179
	33.75			  10.14289			  0.06412			 -0.23427
	34.00			  9.96146			  0.17515			 -0.16975
	34.25			  9.82311			  -0.11902			 -0.25601
	34.50			  9.77124			  0.16770			 -0.19835
	34.75			  9.99413			  0.28246			 -0.10135
	35.00			  9.98226			  0.27956			 0.00935
	35.25			  9.86054			  0.59859			 -0.23399
	35.50			  9.96697			  0.20126			 -0.16611
	35.75			  10.13163			  0.46290			 -0.07500
	36.00			  10.28810			  0.43473			 -0.07626
	36.25			  10.33899			  0.53831			 0.06212
	36.50			  10.41312			  0.30753			 -0.09963
	36.75			  10.14484			  0.26423			 0.00642
	37.00			  9.85479			  -0.06598			 -0.05088
	37.25			  9.93602			  0.01150			 -0.23483
	37.50			  10.27305			  0.09519			 -0.17334
	37.75			  10.62965			  0.25470			 0.04075
	38.00			  10.50499			  0.31126			 0.25140
	38.25			  10.56298			  0.33363			 0.65658
	38.50			  10.71883			  0.21306			 0.44771
	38.75			  10.65559			  0.21969			 0.34657
	39.00			  10.54084			  0.12626			 0.15916
	39.25			  10.49863			  0.10596			 0.13779
	39.50			  10.44823			  0.17267			 0.18193
	39.75			  10.57350			  -0.10058			 0.12282
	40.00			  10.70807			  -0.17039			 0.05130
	40.25			  10.59980			  -0.43908			 0.22275
	40.50			  10.41275			  -0.41795			 0.33635
	40.75			  10.39856			  -0.52298			 0.29119
	41.00			  10.39416			  -0.67235			 0.39201
	41.25			  10.52689			  -0.69244			 0.45373
	41.50			  10.32223			  -0.75438			 0.29007
	41.75			  10.25580			  -0.78297			 0.50356
	42.00			  10.11010			  -0.32058			 0.35716
	42.25			  9.91131			  -0.20789			 0.13621
	42.50			  9.65710			  -0.10514			 0.16835
	42.75			  9.46711			  -0.05749			 0.18547
	43.00			  9.50063			  -0.14388			 0.00595
	43.25			  9.50761			  -0.09250			 -0.14890
	43.50			  9.47176			  0.17868			 -0.07285
	43.75			  9.43873			  0.17515			 0.05904
	44.00			  9.49623			  0.37817			 0.12151
	44.25			  9.63471			  0.24269			 0.30108
	44.50			  9.85650			  0.38190			 0.55371
	44.75			  9.87155			  0.49874			 0.65467
	45.00			  9.96416			  0.55177			 0.33416
	45.25			  9.87620			  0.37734			 0.36789
	45.50			  9.54125			  0.30567			 0.35240
	45.75			  9.47164			  0.24103			 0.16980
	46.00			  9.48987			  0.41753			 0.26777
	46.25			  9.35616			  0.33695			 0.31186
	46.50			  9.53929			  0.39557			 0.49176
	46.75			  9.81687			  0.43618			 0.76790
	47.00			  9.89137			  0.33881			 0.75395
	47.25			  10.06936			  0.05624			 0.45448
	47.50			  10.42144			  0.13973			 0.37340
	47.75			  10.63002			  0.18655			 0.38039
	48.00			  10.51258			  0.04920			 0.31853
	48.25			  10.23133			  -0.44405			 0.30379
	48.50			  10.05481			  -0.33032			 0.35366
	48.75			  9.97443			  -0.36015			 0.42066
	49.00			  10.00771			  -0.63008			 0.27150
	49.25			  10.00440			  -0.30981			 0.35548
	49.50			  10.17567			  -0.23482			 0.24160
	49.75			  10.26828			  0.00756			 0.14516
	50.00			  10.07817			  0.10741			 0.49661
	50.25			  10.20809			  -0.07365			 0.60139
	50.50			  10.17604			  -0.23005			 0.34755
	50.75			  10.27072			  -0.21783			 0.21001
	51.00			  10.27733			  -0.07696			 -0.18463
	51.25			  10.39844			  0.02393			 -0.03968
	51.50			  10.56359			  0.04588			 -0.07602
	51.75			  10.64054			  0.08007			 -0.20815
	52.00			  10.64066			  -0.13041			 -0.43712
	52.25			  10.65253			  -0.15796			 -0.43568
	52.50			  10.87554			  -0.29863			 -0.67147
	52.75			  10.75700			  -0.20706			 -0.87250
	53.00			  10.75896			  -0.09416			 -0.56775
	53.25			  10.72434			  -0.21783			 -0.83443
	53.50			  10.57815			  -0.15755			 -0.71747
	53.75			  10.82918			  -0.10949			 -0.65504
	54.00			  10.98002			  -0.17702			 -0.27673
	54.25			  10.95066			  -0.22757			 -0.41562
	54.50			  10.85719			  0.24973			 -0.31550
	54.75			  10.86686			  0.44426			 -0.14848
	55.00			  10.96766			  0.17992			 -0.48032
	55.25			  10.99274			  -0.16936			 -0.41006
	55.50			  10.78636			  -0.28454			 -0.48359
	55.75			  10.92643			  -0.39392			 -0.39276
	56.00			  10.61326			  -0.20913			 -0.23017
	56.25			  10.61228			  -0.06288			 -0.17805
	56.50			  10.69963			  -0.25989			 -0.15216
	56.75			  10.91506			  -0.35290			 -0.30789
	57.00			  10.84704			  -0.52008			 -0.32123
	57.25			  10.73926			  -0.54183			 -0.34755
	57.50			  10.95885			  -0.74506			 -0.16462
	57.75			  11.37638			  -0.83290			 -0.19340
	58.00			  11.52771			  -0.94518			 -0.25009
	58.25			  11.51205			  -0.80534			 -0.22410
	58.50			  11.34347			  -0.54515			 -0.18314
	58.75			  11.28879			  -0.39330			 -0.14600
	59.00			  11.46372			  -0.34109			 -0.09062
	59.25			  11.30139			  -0.07158			 0.27710
	59.50			  11.13367			  -0.13890			 0.21995
	59.75			  11.25148			  -0.04257			 0.02335
	60.00			  11.20071			  -0.31333			 0.23871
	60.25			  10.87872			  -0.42603			 0.18585
	60.50			  10.97781			  -0.37610			 0.42238
	60.75			  11.03372			  -0.38294			 0.58077
	61.00			  11.28683			  -0.37818			 0.39980
	61.25			  11.16193			  -0.29179			 0.28335
	61.50			  11.17526			  -0.35974			 0.34564
	61.75			  11.15654			  -0.45379			 0.50888
	62.00			  11.23924			  -0.12337			 0.49978
	62.25			  10.87102			  -0.07199			 0.43768
	62.50			  10.70379			  -0.17951			 0.34881
	62.75			  10.56971			  -0.10721			 0.41263
	63.00			  10.56347			  0.06557			 0.62817
	63.25			  10.91041			  0.11218			 0.50874
	63.50			  10.78856			  0.02952			 0.30635
	63.75			  10.70122			  -0.14740			 0.33407
	64.00			  10.88631			  0.11197			 0.57597
	64.25			  10.77364			  0.13434			 0.57251
	64.50			  10.65926			  0.05086			 0.21207
	64.75			  10.71871			  -0.02124			 0.18029
	65.00			  10.80043			  0.05811			 -0.06506
	65.25			  10.85634			  -0.04858			 0.20208
	65.50			  10.97170			  0.10720			 0.26968
	65.75			  11.04375			  -0.04692			 0.14218
	66.00			  10.86661			  0.10078			 0.31363
	66.25			  10.54977			  0.21451			 0.20922
	66.50			  10.47013			  0.17619			 0.00520
	66.75			  10.53546			  -0.01481			 0.17917
	67.00			  10.29238			  0.03573			 -0.07164
	67.25			  10.33214			  0.22425			 0.12968
	67.50			  9.99865			  0.18385			 0.22457
	67.75			  10.14753			  0.41670			 0.35534
	68.00			  9.93186			  0.43929			 0.38179
	68.25			  9.96868			  0.21907			 0.21258
	68.50			  10.19255			  0.06867			 0.22499
	68.75			  10.27219			  -0.18842			 0.33920
	69.00			  10.35379			  0.01460			 0.07794
	69.25			  10.27733			  -0.03512			 0.27262
	69.50			  10.26865			  -0.09851			 0.27500
	69.75			  10.54267			  0.13600			 0.25018
	70.00			  10.43893			  0.11528			 0.15823
	70.25			  10.45863			  0.15299			 0.20861
	70.50			  10.53276			  -0.08504			 0.38329
	70.75			  10.19439			  -0.00011			 0.33187
	71.00			  10.27452			  0.16417			 0.22410
	71.25			  10.36969			  0.38024			 0.29861
	71.50			  10.48163			  0.31499			 0.34559
	71.75			  10.67333			  0.58223			 0.41468
	72.00			  10.65546			  0.52982			 0.38567
	72.25			  10.53509			  0.35248			 0.12179
	72.50			  10.58145			  0.63547			 0.29810
	72.75			  10.55405			  0.44011			 0.07999
	73.00			  10.46095			  0.22612			 0.28760
	73.25			  10.51233			  0.13269			 0.20581
	73.50			  10.45031			  0.63298			 0.13560
	73.75			  10.55014			  0.66592			 0.18370
	74.00			  10.53864			  0.19753			 0.15893
	74.25			  10.43306			  0.02828			 -0.16877
	74.50			  10.33507			  0.10638			 0.13490
	74.75			  10.42205			  -0.05935			 0.13243
	75.00			  10.57925			  0.07427			 0.11204
	75.25			  10.49484			  0.09374			 -0.23534
	75.50			  10.48138			  0.33923			 0.06389
	75.75			  10.52567			  0.12834			 0.05494
	76.00			  10.40566			  0.27107			 -0.00450
	76.25			  10.38572			  0.59839			 0.20810
	76.50			  10.46059			  0.29448			 0.01449
	76.75			  10.73865			  0.41588			 0.10066
	77.00			  10.44273			  0.37942			 0.06772
	77.25			  10.26400			  0.40614			 0.07472
	77.50			  10.11658			  0.25512			 0.42010
	77.75			  9.90189			  0.56400			 0.05932
	78.00			  10.10093			  0.59631			 -0.20801
	78.25			  10.14362			  0.78297			 -0.38501
	78.50			  9.96844			  0.88178			 -0.30743
	78.75			  10.05077			  1.16083			 -0.46185
	79.00			  10.31366			  0.96734			 -0.13084
	79.25			  10.00489			  0.84367			 -0.25821
	79.50			  10.07903			  0.95968			 -0.17997
	79.75			  10.14338			  1.05103			 -0.09678
	80.00			  10.22265			  0.88075			 0.01505
	80.25			  10.14533			  0.59631			 -0.09296
	80.50			  9.95975			  0.80575			 -0.42873
	80.75			  10.06790			  0.97501			 0.04001
	81.00			  10.30706			  0.87868			 -0.08283
	81.25			  10.22155			  0.81611			 -0.09370
	81.50			  10.29556			  0.76184			 -0.10303
	81.75			  10.14423			  0.70135			 -0.10719
	82.00			  10.16907			  0.55695			 0.09949
	82.25			  10.07291			  0.33757			 0.08545
	82.50			  9.89516			  0.53023			 -0.04304
	82.75			  10.09187			  0.50288			 -0.09156
	83.00			  9.95009			  0.39682			 -0.08708
	83.25			  10.12209			  0.38708			 0.03730
	83.50			  10.10056			  0.16459			 -0.05568
	83.75			  9.70212			  0.05728			 -0.12081
	84.00			  9.86592			  0.14719			 -0.06198
	84.25			  9.93736			  0.15630			 -0.02391
	84.50			  9.84867			  0.07240			 0.23264
	84.75			  9.94324			  -0.19629			 0.27514
	85.00			  10.07450			  -0.37279			 0.40862
	85.25			  9.89846			  -0.16397			 0.17824
	85.50			  9.81063			  -0.19152			 0.25849
	85.75			  9.84219			  -0.24456			 0.21972
	86.00			  9.83509			  -0.34979			 0.25611
	86.25			  9.77833			  -0.17019			 0.37176
	86.50			  9.73894			  -0.49667			 0.33234
	86.75			  9.68511			  -0.18448			 0.30173
	87.00			  9.55984			  -0.35332			 0.21515
	87.25			  9.52596			  -0.46871			 0.18440
	87.50			  9.43604			  -0.18634			 0.06343
	87.75			  9.27529			  -0.12420			 0.08456
	88.00			  9.31273			  -0.08836			 0.00502
	88.25			  9.28875			  -0.43183			 0.06618
	88.50			  9.45023			  -0.64376			 -0.10999
	88.75			  9.35310			  -0.45773			 0.07271
	89.00			  9.39212			  -0.12627			 -0.05419
	89.25			  9.61061			  -0.29655			 0.08773
	89.50			  9.60327			  -0.16107			 -0.14885
	89.75			  9.87338			  0.05541			 -0.16056
	90.00			  9.84329			  -0.06578			 0.01463
	90.25			  9.74236			  0.07282			 -0.03637
	90.50			  10.00844			  0.06163			 0.00450
	90.75			  10.24332			  -0.09809			 -0.05456
	91.00			  10.25201			  -0.06826			 -0.03996
	91.25			  10.23133			  -0.06826			 -0.06557
	91.50			  10.17347			  0.10783			 -0.10429
	91.75			  10.34902			  0.18220			 -0.12468
	92.00			  10.27941			  -0.00839			 -0.36873
	92.25			  10.23011			  0.12813			 -0.74569
	92.50			  10.10031			  -0.08753			 -0.46129
	92.75			  9.86384			  0.01647			 -0.10000
	93.00			  9.73123			  0.17474			 -0.24939
	93.25			  9.63630			  0.46166			 -0.23054
	93.50			  9.78494			  0.18075			 -0.15613
	93.75			  9.56082			  -0.02269			 -0.06310
	94.00			  9.61954			  -0.27646			 -0.13947
	94.25			  9.37769			  -0.19235			 -0.06818
	94.50			  9.39530			  0.13227			 -0.20427
	94.75			  9.52155			  0.00383			 -0.22452
	95.00			  9.41108			  0.00342			 -0.51690
	95.25			  9.58394			  -0.15486			 -0.48774
	95.50			  9.67019			  -0.09250			 -0.58245
	95.75			  9.74359			  0.10886			 -0.34708
	96.00			  9.70652			  0.08815			 -0.36994
	96.25			  9.59985			  -0.14035			 -0.57932
	96.50			  9.77221			  -0.01730			 -0.37255
	96.75			  9.77613			  0.05189			 -0.04206
	97.00			  9.77197			  0.08732			 -0.01309
	97.25			  9.84916			  -0.11301			 -0.16322
	97.50			  9.68132			  -0.34959			 -0.00212
	97.75			  9.73784			  -0.01088			 -0.08232
	98.00			  9.83485			  0.00466			 -0.00921
	98.25			  9.99303			  0.03863			 -0.12282
	98.50			  10.04306			  0.26568			 -0.38534
	98.75			  9.74652			  -0.07240			 -0.42327
	99.00			  9.89932			  0.08897			 -0.48555
	99.25			  9.91131			  0.09830			 -0.34601
	99.50			  9.87436			  0.09519			 -0.50351
	99.75			  9.76598			  0.14553			 -0.56295
	100.00			  10.00746			  0.26921			 -0.24789
	100.25			  10.03291			  0.31395			 -0.35119
	100.50			  10.02765			  0.26216			 -0.40624
	100.75			  9.99131			  0.30836			 -0.33742
	101.00			  9.98202			  0.56193			 -0.30920
	101.25			  9.84757			  0.27397			 -0.27393
	101.50			  9.95437			  0.43866			 -0.25667
	101.75			  10.12380			  0.13745			 -0.16723
	102.00			  10.25910			  -0.13704			 0.21449
	102.25			  10.19916			  -0.20105			 0.05652
	102.50			  10.07059			  -0.29283			 0.06357
	102.75			  10.28418			  -0.35518			 -0.01528
	103.00			  10.31562			  -0.45048			 -0.07140
	103.25			  10.20197			  -0.17516			 0.21473
	103.50			  10.41496			  0.09415			 0.25737
	103.75			  10.46719			  -0.10120			 0.02018
	104.00			  10.54952			  0.06432			 0.23987
	104.25			  10.18497			  -0.01419			 -0.14941
	104.50			  9.95217			  -0.15175			 0.15034
	104.75			  9.95682			  0.04133			 0.38030
	105.00			  9.68487			  0.30277			 0.42747
	105.25			  9.87571			  0.28454			 0.23357
	105.50			  9.92440			  0.56690			 0.21197
	105.75			  10.01284			  0.75169			 0.08013
	106.00			  9.85687			  0.76453			 -0.02620
	106.25			  10.06141			  0.67110			 -0.07961
	106.50			  9.90678			  0.54142			 -0.24052
	106.75			  9.81638			  0.37838			 -0.25387
	107.00			  9.84292			  0.60336			 -0.11764
	107.25			  9.79374			  0.67379			 -0.11866
	107.50			  9.86507			  0.61558			 -0.35814
	107.75			  10.03548			  0.43618			 -0.13793
	108.00			  10.00624			  0.48051			 -0.11759
	108.25			  9.95841			  0.41401			 -0.11269
	108.50			  9.84977			  0.27708			 -0.12916
	108.75			  9.60755			  0.40490			 -0.27169
	109.00			  9.69918			  0.44364			 -0.10691
	109.25			  9.86458			  0.47782			 0.00343
	109.50			  9.83876			  0.44115			 -0.07089
	109.75			  9.88745			  0.63050			 0.08549
	110.00			  10.06814			  0.67794			 -0.11684
	110.25			  10.04257			  0.33115			 0.08913
	110.50			  10.04881			  0.28889			 0.13135
	110.75			  9.87656			  0.27293			 -0.00819
	111.00			  9.74958			  0.31872			 -0.14134
	111.25			  9.65049			  0.50454			 -0.08806
	111.50			  9.41145			  0.71937			 -0.03613
	111.75			  9.65539			  0.74692			 0.03758
	112.00			  9.80843			  0.83289			 0.19555
	112.25			  9.86935			  0.85796			 0.24650
	112.50			  9.76328			  0.79395			 0.24104
	112.75			  9.61820			  0.60916			 0.29054
	113.00			  9.69576			  0.63713			 0.09263
	113.25			  9.85002			  0.65246			 0.03641
	113.50			  9.97394			  0.47077			 -0.20642
	113.75			  9.88060			  0.47720			 -0.11218
	114.00			  9.80855			  0.72289			 -0.22592
	114.25			  9.72083			  0.66488			 -0.28610
	114.50			  9.63911			  0.52174			 -0.09576
	114.75			  9.51287			  0.31727			 -0.02946
	115.00			  9.27774			  0.30546			 0.12408
	115.25			  9.28679			  0.19856			 0.05470
	115.50			  9.03430			  0.33011			 -0.08503
	115.75			  8.88113			  0.34296			 -0.00604
	116.00			  8.96579			  0.17142			 -0.26264
	116.25			  9.23994			  0.40448			 -0.10056
	116.50			  9.34074			  0.48610			 0.01509
	116.75			  9.54516			  0.33508			 0.08778
	117.00			  9.28569			  0.20913			 0.04080
	117.25			  9.18990			  0.02807			 0.04085
	117.50			  9.22342			  -0.08111			 0.26283
	117.75			  9.34258			  0.24600			 0.43936
	118.00			  9.46919			  0.04506			 0.61977
	118.25			  9.61208			  0.10741			 0.31480
	118.50			  9.87143			  0.23067			 0.22788
	118.75			  9.60217			  0.23026			 0.04351
	119.00			  9.74775			  -0.14098			 -0.07448
	119.25			  9.76989			  0.01916			 -0.13653
	119.50			  9.64841			  0.04319			 -0.20563
	119.75			  9.68438			  0.22363			 -0.26016
	120.00			  9.63398			  0.00072			 -0.31956
	120.25			  9.44595			  0.36429			 -0.37111
	120.50			  9.61881			  0.17039			 -0.47473
	120.75			  9.72230			  0.03428			 -0.42653
	121.00			  9.62676			  0.14118			 -0.62369
	121.25			  9.31579			  -0.02579			 -0.63428
	121.50			  9.34013			  0.18738			 -0.67902
	121.75			  9.64670			  0.27231			 -0.37694
	122.00			  9.44840			  0.09643			 -0.38818
	122.25			  9.49231			  0.05314			 -0.64100
	122.50			  9.47861			  -0.21452			 -0.39910
	122.75			  9.66138			  -0.28350			 -0.26954
	123.00			  9.52192			  -0.41650			 0.12692
	123.25			  9.76805			  -0.53293			 0.21916
	123.50			  9.78812			  -0.53438			 0.16560
	123.75			  9.65698			  -0.45814			 0.30696
	124.00			  9.64609			  -0.72952			 0.12020
	124.25			  9.50137			  -0.80369			 0.13509
	124.50			  9.49916			  -0.57954			 0.40181
	124.75			  9.84892			  -0.41609			 0.31932
	125.00			  9.73368			  -0.26071			 0.28009
	125.25			  9.54321			  -0.31686			 0.21146
	125.50			  9.24973			  -0.34420			 0.09972
	125.75			  9.00530			  -0.31064			 -0.11367
	126.00			  9.14513			  -0.39496			 -0.03627
	126.25			  9.15406			  -0.47471			 -0.04430
	126.50			  9.21914			  -0.36450			 0.19172
	126.75			  9.34197			  -0.33695			 0.21449
	127.00			  9.50969			  -0.05832			 0.28527
	127.25			  9.68046			  -0.13621			 0.20978
	127.50			  9.76989			  -0.18282			 0.02596
	127.75			  9.52877			  -0.26092			 -0.17208
	128.00			  9.60719			  -0.34296			 0.00464
	128.25			  9.42075			  -0.47306			 -0.11810
	128.50			  9.43910			  -0.56835			 -0.15169
	128.75			  9.27089			  -0.63858			 -0.11885
	129.00			  9.44962			  -0.76619			 0.01841
	129.25			  9.83301			  -0.75749			 0.07397
	129.50			  9.74285			  -0.60253			 -0.11451
	129.75			  9.47629			  -0.45793			 0.03772
	130.00			  9.48926			  -0.51656			 0.09632
	130.25			  9.71252			  -0.63506			 -0.18589
	130.50			  9.80451			  -0.71212			 0.01094
	130.75			  9.64254			  -0.42541			 -0.03557
	131.00			  9.53611			  -0.29241			 -0.06692
	131.25			  9.30160			  -0.42727			 0.00590
	131.50			  9.38344			  -0.35808			 -0.03543
	131.75			  9.54651			  -0.28081			 -0.06739
	132.00			  9.49305			  -0.35518			 -0.06744
	132.25			  9.45928			  -0.42541			 0.19728
	132.50			  9.53709			  -0.36533			 0.10196
	132.75			  9.76267			  -0.46912			 0.25947
	133.00			  9.94519			  -0.55571			 0.22742
	133.25			  9.89320			  -0.58037			 0.15403
	133.50			  9.84586			  -0.35249			 0.40507
	133.75			  9.82005			  -0.46912			 0.33150
	134.00			  9.87412			  -0.80410			 0.17255
	134.25			  9.89883			  -0.97315			 0.13639
	134.50			  9.80940			  -0.90147			 0.27113
	134.75			  9.90311			  -0.56317			 0.11311
	135.00			  9.85956			  -0.38253			 0.12851
	135.25			  10.11781			  -0.53624			 0.40143
	135.50			  10.11928			  -0.53541			 0.41081
	135.75			  10.26082			  -0.22860			 0.36868
	136.00			  10.17335			  0.17930			 0.28545
	136.25			  10.40970			  -0.10638			 0.10597
	136.50			  10.20833			  -0.10679			 0.32889
	136.75			  10.07438			  -0.30670			 0.31069
	137.00			  9.94116			  -0.14035			 0.00357
	137.25			  10.05297			  -0.08566			 -0.15655
	137.50			  9.91339			  -0.01854			 -0.27612
	137.75			  10.10362			  0.19401			 -0.39136
	138.00			  10.08221			  0.35186			 -0.28275
	138.25			  9.72964			  -0.01771			 0.06739
	138.50			  9.67887			  -0.07075			 -0.17857
	138.75			  9.64425			  0.14014			 -0.14908
	139.00			  9.64560			  0.57415			 0.07131
	139.25			  9.78335			  -0.04941			 0.33365
	139.50			  9.57685			  -0.49108			 0.07369
	139.75			  9.70199			  -0.68664			 0.08265
	140.00			  9.85895			  -0.96776			 0.34382
	140.25			  9.89247			  -0.99179			 0.41874
	140.50			  9.67716			  -0.74630			 0.19928
	140.75			  9.57293			  -0.75272			 0.07910
	141.00			  9.81307			  -0.59756			 0.14992
	141.25			  9.91400			  -0.71647			 0.11880
	141.50			  9.82543			  -0.52858			 -0.00030
	141.75			  9.78983			  -0.68995			 -0.18981
	142.00			  9.50858			  -0.49129			 -0.32343
	142.25			  9.36460			  -0.34834			 -0.03039
	142.50			  9.28068			  -0.30090			 -0.04518
	142.75			  9.35347			  -0.46166			 0.12053
	143.00			  9.32582			  -0.07448			 0.05540
	143.25			  9.16483			  0.06702			 0.35473
	143.50			  9.46136			  -0.14760			 0.27253
	143.75			  9.81968			  -0.25305			 0.09478
	144.00			  9.72267			  -0.49108			 0.30785
	144.25			  9.49085			  -0.68415			 0.23194
	144.50			  9.52950			  -0.53313			 0.20157
	144.75			  9.52216			  -0.67380			 0.08512
	145.00			  9.61220			  -0.67525			 -0.08605
	145.25			  9.71019			  -0.85755			 0.12982
	145.50			  9.77368			  -0.52795			 0.12263
	145.75			  9.93406			  -0.42023			 0.20040
	146.00			  9.81968			  -0.58762			 0.10080
	146.25			  9.84329			  -0.55343			 0.22919
	146.50			  10.11805			  -0.46125			 0.24850
	146.75			  10.25115			  -0.41049			 0.48602
	147.00			  10.23696			  -0.39951			 0.46045
	147.25			  10.23084			  -0.21390			 0.35707
	147.50			  10.30045			  -0.56089			 0.35693
	147.75			  10.19806			  -0.61413			 0.34153
	148.00			  9.99927			  -0.32639			 0.49092
	148.25			  9.97541			  -0.12627			 0.36383
	148.50			  9.92085			  0.01978			 0.44272
	148.75			  9.96367			  -0.02227			 0.34960
	149.00			  9.93541			  0.19981			 0.44748
	149.25			  9.78995			  0.31913			 0.86149
	149.50			  9.68572			  0.19297			 0.55157
	149.75			  9.95278			  0.09830			 0.47216
	150.00			  10.36982			  0.08152			 0.40769
	150.25			  10.22766			  -0.14864			 0.07528
	150.50			  10.22277			  -0.14325			 0.38874
	150.75			  10.12197			  -0.12627			 0.48611
	151.00			  10.08013			  -0.16646			 0.13191
	151.25			  9.93369			  -0.08711			 0.34620
	151.50			  9.84598			  -0.01668			 0.16266
	151.75			  9.98679			  0.05417			 0.24645
	152.00			  10.00049			  -0.30422			 0.24533
	152.25			  10.05701			  -0.27874			 0.19658
	152.50			  10.05395			  -0.34959			 0.13733
	152.75			  10.07805			  -0.14533			 0.24300
	153.00			  10.48603			  -0.23316			 0.36612
	153.25			  10.66109			  -0.40946			 0.50505
	153.50			  10.59161			  -0.43370			 0.52269
	153.75			  10.41557			  -0.53272			 0.49255
	154.00			  10.53839			  -0.35518			 0.52278
	154.25			  10.61240			  -0.13248			 0.49148
	154.50			  10.55148			  -0.20209			 0.54238
	154.75			  10.59210			  -0.42499			 0.66489
	155.00			  10.43906			  -0.50931			 0.15664
	155.25			  10.25886			  -0.44343			 0.14792
	155.50			  10.17506			  -0.36533			 0.37153
	155.75			  10.30632			  -0.50454			 0.55348
	156.00			  10.25812			  -0.49004			 0.48238
	156.25			  10.05407			  -0.40304			 0.24192
	156.50			  10.03499			  -0.40013			 0.23101
	156.75			  9.96734			  -0.49087			 0.07220
	157.00			  9.61771			  -0.41567			 0.04980
	157.25			  9.77270			  -0.73967			 0.11269
	157.50			  9.34784			  -0.66882			 0.02722
	157.75			  9.52583			  -0.74672			 0.09464
	158.00			  9.73894			  -0.38232			 -0.27738
	158.25			  9.96036			  -0.17619			 -0.28970
	158.50			  10.09811			  -0.09457			 -0.54284
	158.75			  10.44530			  -0.13414			 -0.73991
	159.00			  10.27501			  -0.32452			 -0.97593
	159.25			  9.97015			  -0.54888			 -0.72390
	159.50			  9.87546			  -0.74775			 -0.82332
	159.75			  9.75399			  -0.37175			 -0.76141
	160.00			  9.81625			  -0.20437			 -0.43162
	160.25			  9.92183			  0.16272			 -0.43204
	160.50			  9.99694			  -0.02662			 -0.49913
	160.75			  9.87693			  -0.08898			 -0.47589
	161.00			  9.81992			  -0.41401			 -0.45942
	161.25			  9.64242			  -0.16459			 -0.65920
	161.50			  9.72842			  -0.23109			 -0.56500
	161.75			  9.75839			  -0.25222			 -0.63181
	162.00			  9.96171			  0.13227			 -0.66489
	162.25			  9.97431			  0.06163			 -0.29520
	162.50			  9.75643			  -0.04319			 -0.09198
	162.75			  9.64988			  0.08670			 -0.05353
	163.00			  9.52008			  0.04340			 -0.05526
	163.25			  9.54100			  -0.21307			 -0.08820
	163.50			  9.58235			  -0.21037			 -0.02074
	163.75			  9.60009			  -0.27646			 -0.33588
	164.00			  9.69172			  -0.22633			 0.09254
	164.25			  9.68817			  -0.21908			 0.16537
	164.50			  9.62872			  -0.21887			 0.34825
	164.75			  9.49782			  -0.35932			 0.28139
	165.00			  9.43066			  -0.13890			 0.17358
	165.25			  9.32521			  -0.06805			 0.25816
	165.50			  9.50002			  0.14947			 0.34634
	165.75			  9.78445			  -0.02186			 0.21099
	166.00			  9.86360			  0.03242			 0.13658
	166.25			  9.63814			  -0.11736			 0.35445
	166.50			  9.45292			  -0.44799			 0.20250
	166.75			  9.66297			  -0.42852			 0.13947