--------------TurbSim v2.00.* User Time Series Input File-----------------------
     Time series input from low-res turbsim run
--------------------------------------------------------------------------------
          3 nComp - Number of velocity components in the file
          1 nPoints - Number of time series points contained in this file (-)
          1 RefPtID - Index of the reference point (1-nPoints)
     Pointyi Pointzi ! nPoints listed in order of increasing height
       (m)     (m)
       1.18840   94.00000
--------Time Series-------------------------------------------------------------
Elapsed Time         Point01u             Point01v           Point01w
         (s)            (m/s)                (m/s)              (m/s)
	0.00			  9.42874			  -0.04715			 -0.12409
	0.25			  9.64072			  0.01727			 -0.16233
	0.50			  9.72561			  0.00260			 -0.14660
	0.75			  9.73927			  0.10006			 -0.23724
	1.00			  9.86423			  0.03295			 -0.30006
	1.25			  9.87803			  0.01659			 -0.24852
	1.50			  9.93055			  -0.01376			 -0.07778
	1.75			  9.82950			  -0.03618			 0.03251
	2.00			  9.82794			  -0.05271			 0.06287
	2.25			  9.81748			  -0.05187			 -0.11560
	2.50			  9.80018			  -0.00314			 -0.04358
	2.75			  9.81954			  -0.05726			 -0.06197
	3.00			  9.86579			  -0.03770			 -0.16048
	3.25			  9.79812			  -0.03888			 -0.16966
	3.50			  9.71380			  0.01676			 -0.14834
	3.75			  9.54971			  0.05099			 -0.08079
	4.00			  9.64421			  0.02013			 -0.02653
	4.25			  9.71935			  -0.05254			 -0.05702
	4.50			  9.59404			  -0.14326			 0.00356
	4.75			  9.54935			  -0.22234			 -0.04390
	5.00			  9.52637			  -0.24713			 -0.08645
	5.25			  9.52139			  -0.24123			 -0.08302
	5.50			  9.55490			  -0.31424			 -0.04934
	5.75			  9.73152			  -0.20295			 -0.08004
	6.00			  9.77229			  -0.09318			 -0.00759
	6.25			  9.70085			  -0.05018			 0.10315
	6.50			  9.65097			  -0.10583			 0.04436
	6.75			  9.65886			  -0.06418			 0.12130
	7.00			  9.59425			  -0.03500			 0.20048
	7.25			  9.60813			  -0.10212			 0.16995
	7.50			  9.65239			  -0.08340			 0.07637
	7.75			  9.68811			  -0.09588			 0.15585
	8.00			  9.65360			  -0.13297			 0.20891
	8.25			  9.68156			  -0.20514			 0.26603
	8.50			  9.79798			  -0.24882			 0.16088
	8.75			  9.83455			  -0.19283			 0.18640
	9.00			  9.81584			  -0.25202			 0.15568
	9.25			  9.79833			  -0.25691			 0.06846
	9.50			  9.75343			  -0.22555			 0.07877
	9.75			  9.85505			  -0.21695			 -0.03526
	10.00			  9.88543			  -0.17968			 0.00683
	10.25			  9.86501			  -0.19941			 0.03752
	10.50			  9.87241			  -0.15068			 0.01876
	10.75			  9.90344			  -0.13837			 -0.00962
	11.00			  9.85811			  -0.16063			 0.07889
	11.25			  9.73166			  -0.12134			 0.08871
	11.50			  9.73237			  -0.13550			 0.10912
	11.75			  9.78339			  -0.12488			 0.08023
	12.00			  9.69658			  -0.25657			 0.06163
	12.25			  9.77507			  -0.21627			 0.04270
	12.50			  9.89603			  -0.18440			 0.04097
	12.75			  9.70220			  -0.25623			 0.02191
	13.00			  9.70248			  -0.20228			 -0.00968
	13.25			  9.69373			  -0.13685			 -0.03006
	13.50			  9.70960			  -0.19300			 -0.06331
	13.75			  9.63809			  -0.18457			 -0.00135
	14.00			  9.61589			  -0.13651			 -0.02797
	14.25			  9.57518			  -0.22403			 -0.05890
	14.50			  9.67694			  -0.16906			 -0.05645
	14.75			  9.55810			  -0.06974			 -0.08921
	15.00			  9.55028			  -0.09739			 -0.01579
	15.25			  9.66456			  0.03936			 -0.08895
	15.50			  9.63239			  0.11574			 -0.10243
	15.75			  9.59375			  0.21051			 -0.01508
	16.00			  9.56252			  0.26312			 0.11492
	16.25			  9.57938			  0.18724			 -0.01532
	16.50			  9.55078			  0.26531			 0.01239
	16.75			  9.52189			  0.25873			 -0.05336
	17.00			  9.58016			  0.24018			 -0.07738
	17.25			  9.65865			  0.26581			 0.03240
	17.50			  9.57646			  0.28015			 -0.08048
	17.75			  9.56486			  0.27543			 -0.07677
	18.00			  9.56230			  0.18639			 0.00983
	18.25			  9.59575			  0.14289			 0.03267
	18.50			  9.69651			  0.03413			 0.07450
	18.75			  9.68683			  0.11911			 0.01038
	19.00			  9.65972			  0.14154			 0.06125
	19.25			  9.65481			  0.14727			 -0.02908
	19.50			  9.67594			  0.22383			 0.09606
	19.75			  9.69772			  0.08859			 0.04000
	20.00			  9.59859			  -0.00212			 -0.02058
	20.25			  9.65531			  0.01137			 -0.00866
	20.50			  9.54878			  0.07494			 -0.05493
	20.75			  9.52274			  -0.09588			 -0.08846
	21.00			  9.54373			  -0.02944			 -0.09548
	21.25			  9.47869			  0.04256			 -0.08743
	21.50			  9.53199			  0.10175			 -0.04959
	21.75			  9.53704			  0.05099			 -0.14087
	22.00			  9.50481			  -0.01393			 -0.04813
	22.25			  9.62763			  -0.03028			 -0.04303
	22.50			  9.55974			  -0.06418			 -0.02580
	22.75			  9.55654			  -0.11965			 -0.05872
	23.00			  9.50673			  -0.15489			 0.05652
	23.25			  9.47542			  -0.11038			 -0.01958
	23.50			  9.37195			  -0.04242			 -0.03345
	23.75			  9.40917			  0.10040			 -0.02281
	24.00			  9.36982			  0.07612			 0.03100
	24.25			  9.44382			  0.03632			 0.08604
	24.50			  9.49029			  0.18336			 0.06222
	24.75			  9.46973			  0.06313			 -0.01794
	25.00			  9.43450			  -0.01308			 -0.08838
	25.25			  9.45934			  -0.03399			 -0.16633
	25.50			  9.51548			  0.10613			 -0.20618
	25.75			  9.54523			  -0.07581			 -0.29548
	26.00			  9.48182			  -0.11308			 -0.14753
	26.25			  9.60507			  -0.04006			 -0.12001
	26.50			  9.60023			  -0.00769			 -0.07979
	26.75			  9.52217			  0.06280			 -0.12583
	27.00			  9.54551			  0.08640			 -0.16044
	27.25			  9.59610			  0.02081			 -0.17676
	27.50			  9.62563			  0.19112			 -0.21320
	27.75			  9.46268			  0.22012			 0.04247
	28.00			  9.50068			  0.10495			 0.01070
	28.25			  9.56643			  0.11979			 -0.00645
	28.50			  9.52601			  0.11153			 -0.04717
	28.75			  9.60777			  0.14744			 -0.10813
	29.00			  9.62464			  0.20208			 -0.08395
	29.25			  9.57910			  0.16734			 -0.06907
	29.50			  9.49954			  0.05538			 0.01462
	29.75			  9.47058			  0.02772			 0.08459
	30.00			  9.44760			  0.18943			 -0.03278
	30.25			  9.44098			  0.08101			 0.00500
	30.50			  9.46375			  0.04846			 0.05741
	30.75			  9.42198			  0.01120			 0.12919
	31.00			  9.43913			  -0.12370			 0.13715
	31.25			  9.54850			  -0.06940			 0.11823
	31.50			  9.52267			  -0.09537			 0.02562
	31.75			  9.44397			  -0.27276			 0.10623
	32.00			  9.40896			  -0.29164			 -0.00556
	32.25			  9.41984			  -0.30766			 -0.05596
	32.50			  9.46176			  -0.19587			 -0.02151
	32.75			  9.44817			  -0.28709			 -0.09818
	33.00			  9.50018			  -0.27124			 -0.03203
	33.25			  9.52075			  -0.22605			 -0.03201
	33.50			  9.55341			  -0.17901			 0.03027
	33.75			  9.44105			  -0.20717			 0.07739
	34.00			  9.36833			  -0.09621			 -0.03136
	34.25			  9.37018			  -0.08694			 0.08518
	34.50			  9.48972			  -0.10835			 0.18461
	34.75			  9.46716			  -0.13567			 0.16535
	35.00			  9.45379			  -0.05861			 0.12692
	35.25			  9.42433			  0.00985			 0.14103
	35.50			  9.46887			  -0.16417			 0.06777
	35.75			  9.48951			  -0.13753			 0.08267
	36.00			  9.41472			  -0.19941			 -0.07656
	36.25			  9.38676			  -0.18659			 -0.04307
	36.50			  9.45144			  -0.08795			 -0.01189
	36.75			  9.45763			  -0.10228			 0.02246
	37.00			  9.51256			  -0.31576			 -0.12015
	37.25			  9.54772			  -0.32571			 -0.01938
	37.50			  9.55896			  -0.37241			 -0.11836
	37.75			  9.53398			  -0.32031			 -0.19495
	38.00			  9.67872			  -0.34560			 -0.08452
	38.25			  9.73059			  -0.41524			 -0.05961
	38.50			  9.69331			  -0.43969			 -0.17341
	38.75			  9.82267			  -0.39771			 -0.11453
	39.00			  9.77699			  -0.27731			 -0.14069
	39.25			  9.81406			  -0.30395			 -0.18046
	39.50			  9.83797			  -0.42485			 -0.12971
	39.75			  9.94791			  -0.51793			 -0.14851
	40.00			  9.90934			  -0.43177			 -0.27235
	40.25			  10.01359			  -0.50832			 -0.23876
	40.50			  9.98448			  -0.47106			 -0.24394
	40.75			  10.04518			  -0.36381			 -0.20545
	41.00			  10.02882			  -0.31947			 -0.17514
	41.25			  10.00092			  -0.30294			 -0.02299
	41.50			  10.01067			  -0.25455			 -0.04067
	41.75			  10.06134			  -0.16349			 -0.01159
	42.00			  10.01772			  -0.13820			 -0.08966
	42.25			  9.98057			  -0.10599			 -0.03990
	42.50			  9.97602			  -0.15827			 -0.11909
	42.75			  9.83093			  -0.21088			 -0.11873
	43.00			  9.78517			  -0.36078			 0.01145
	43.25			  9.89269			  -0.37477			 0.05672
	43.50			  9.83562			  -0.41946			 -0.07675
	43.75			  9.75308			  -0.40934			 -0.11386
	44.00			  9.76859			  -0.38169			 -0.05612
	44.25			  9.76866			  -0.31475			 -0.13383
	44.50			  9.76923			  -0.31744			 -0.13277
	44.75			  9.80374			  -0.33211			 -0.05716
	45.00			  9.75237			  -0.35336			 -0.06625
	45.25			  9.72618			  -0.34763			 -0.13785
	45.50			  9.70078			  -0.33953			 -0.02709
	45.75			  9.66833			  -0.36854			 0.06592
	46.00			  9.68071			  -0.22993			 -0.06406
	46.25			  9.64862			  -0.28220			 -0.07527
	46.50			  9.55903			  -0.24055			 0.00313
	46.75			  9.63453			  -0.23785			 0.07560
	47.00			  9.62585			  -0.21020			 0.07704
	47.25			  9.69971			  -0.34038			 0.04655
	47.50			  9.67217			  -0.46785			 0.19249
	47.75			  9.71636			  -0.39788			 0.21374
	48.00			  9.72860			  -0.42738			 0.18828
	48.25			  9.75962			  -0.37545			 0.08510
	48.50			  9.81869			  -0.41659			 0.03468
	48.75			  9.89988			  -0.40091			 0.07580
	49.00			  9.89248			  -0.21206			 0.16334
	49.25			  9.91055			  -0.30446			 0.18073
	49.50			  9.92863			  -0.31104			 0.17499
	49.75			  9.79335			  -0.28355			 0.04943
	50.00			  9.86579			  -0.28153			 0.09257
	50.25			  9.76276			  -0.34999			 0.20460
	50.50			  9.73821			  -0.31643			 0.19364
	50.75			  9.76902			  -0.24325			 0.14795
	51.00			  9.77243			  -0.18103			 0.14444
	51.25			  9.81520			  -0.01359			 0.18392
	51.50			  9.84345			  0.01204			 0.20513
	51.75			  9.85121			  0.01642			 0.17066
	52.00			  9.82908			  -0.08863			 0.09344
	52.25			  9.81072			  -0.15641			 0.05555
	52.50			  9.88301			  -0.18777			 0.12032
	52.75			  9.90564			  -0.23094			 0.27070
	53.00			  9.76567			  -0.21796			 0.27050
	53.25			  9.76404			  -0.14528			 0.20881
	53.50			  9.81456			  -0.20750			 0.22598
	53.75			  9.87120			  -0.31795			 0.10262
	54.00			  9.76695			  -0.15692			 0.11245
	54.25			  9.85391			  -0.08660			 0.04501
	54.50			  9.82879			  0.02991			 0.11547
	54.75			  9.91297			  0.12569			 0.00273
	55.00			  9.82986			  0.04104			 -0.13882
	55.25			  9.89127			  -0.17951			 -0.16763
	55.50			  10.02526			  -0.20767			 -0.14530
	55.75			  10.05614			  -0.25303			 -0.21135
	56.00			  10.06361			  -0.20362			 -0.18056
	56.25			  10.04589			  -0.12168			 -0.13996
	56.50			  10.02483			  -0.18322			 -0.00395
	56.75			  9.95282			  -0.18508			 0.03693
	57.00			  9.89504			  -0.15405			 -0.04009
	57.25			  9.99352			  -0.18322			 0.01570
	57.50			  9.95012			  -0.11206			 0.02217
	57.75			  9.90059			  -0.09655			 0.04986
	58.00			  9.89020			  -0.09992			 -0.01528
	58.25			  9.90379			  -0.14140			 -0.01609
	58.50			  9.90621			  -0.12471			 -0.10563
	58.75			  9.92834			  -0.12640			 -0.05545
	59.00			  10.01786			  -0.22521			 -0.01177
	59.25			  10.05052			  -0.28709			 0.04306
	59.50			  10.03586			  -0.20481			 -0.03672
	59.75			  10.01501			  -0.24747			 0.05453
	60.00			  10.10197			  -0.34645			 0.11521
	60.25			  10.15270			  -0.31120			 0.10414
	60.50			  10.21646			  -0.25472			 0.04079
	60.75			  10.34156			  -0.22352			 -0.07173
	61.00			  10.24670			  -0.28018			 -0.12254
	61.25			  10.33871			  -0.23212			 -0.15417
	61.50			  10.35586			  -0.30868			 0.03914
	61.75			  10.37279			  -0.17142			 0.03527
	62.00			  10.40460			  -0.14511			 -0.01526
	62.25			  10.32889			  -0.03028			 0.02203
	62.50			  10.17127			  0.03278			 0.03062
	62.75			  10.16060			  -0.02354			 0.05282
	63.00			  10.21212			  -0.00297			 0.04745
	63.25			  10.18807			  -0.02404			 0.08508
	63.50			  10.10104			  0.01575			 -0.09766
	63.75			  10.12317			  -0.05254			 -0.11517
	64.00			  10.10908			  -0.05204			 -0.13681
	64.25			  10.08517			  -0.07682			 -0.18531
	64.50			  10.04988			  -0.01410			 -0.14769
	64.75			  10.01217			  0.02688			 -0.06867
	65.00			  10.00099			  0.05875			 -0.16282
	65.25			  10.02640			  -0.01983			 -0.07451
	65.50			  10.09051			  -0.09975			 -0.07437
	65.75			  10.00654			  -0.05355			 -0.06993
	66.00			  10.01352			  -0.03804			 -0.08466
	66.25			  10.06653			  -0.11577			 -0.01045
	66.50			  10.13676			  -0.16923			 -0.04067
	66.75			  10.21333			  -0.19469			 -0.16069
	67.00			  10.20821			  -0.14832			 -0.05773
	67.25			  10.12452			  -0.01410			 -0.10781
	67.50			  10.01601			  -0.06654			 -0.07490
	67.75			  10.00533			  -0.11746			 -0.06995
	68.00			  9.99181			  -0.07025			 -0.08609
	68.25			  9.97858			  -0.02489			 0.00362
	68.50			  9.95567			  0.00462			 0.06959
	68.75			  9.91340			  0.03750			 -0.09859
	69.00			  9.96413			  0.16481			 -0.04835
	69.25			  9.95787			  0.04054			 -0.14861
	69.50			  9.93546			  -0.04091			 -0.08958
	69.75			  10.11207			  -0.02270			 0.01330
	70.00			  10.11933			  -0.18491			 0.01503
	70.25			  10.07187			  -0.18626			 0.10769
	70.50			  10.05038			  -0.19368			 0.11856
	70.75			  9.95752			  -0.19570			 0.05851
	71.00			  9.99203			  -0.26349			 0.02581
	71.25			  10.05714			  -0.19823			 -0.11552
	71.50			  10.05280			  -0.23330			 -0.01006
	71.75			  10.06625			  -0.27579			 0.01986
	72.00			  10.08460			  -0.28136			 -0.04707
	72.25			  10.13221			  -0.22066			 -0.01380
	72.50			  10.11862			  -0.18086			 -0.16895
	72.75			  10.17789			  -0.30969			 -0.06633
	73.00			  10.26641			  -0.24662			 -0.01581
	73.25			  10.10375			  -0.18255			 -0.00338
	73.50			  10.06966			  0.04745			 0.00246
	73.75			  9.97794			  -0.00617			 0.04661
	74.00			  9.93603			  -0.07058			 0.20182
	74.25			  9.96819			  -0.06148			 0.16823
	74.50			  10.03444			  0.03868			 0.08431
	74.75			  10.00754			  -0.02640			 0.22375
	75.00			  10.03081			  -0.06738			 0.11490
	75.25			  10.05486			  -0.04242			 0.05408
	75.50			  9.90742			  -0.07379			 0.06423
	75.75			  10.02206			  0.10512			 0.10808
	76.00			  10.04084			  0.22147			 0.19612
	76.25			  9.99943			  0.04037			 0.18891
	76.50			  9.91873			  0.04560			 0.02457
	76.75			  9.92898			  0.17830			 0.08195
	77.00			  9.96392			  0.14812			 0.09058
	77.25			  9.90002			  0.23310			 0.11454
	77.50			  9.92998			  0.16329			 0.15686
	77.75			  9.83527			  0.06802			 0.07047
	78.00			  9.85327			  -0.02354			 0.11717
	78.25			  9.82409			  0.04003			 0.22371
	78.50			  9.91674			  0.14474			 0.16681
	78.75			  9.82744			  0.11928			 0.08317
	79.00			  9.91966			  0.08303			 0.14929
	79.25			  9.88031			  0.01204			 0.16198
	79.50			  9.72526			  0.04442			 0.15051
	79.75			  9.84622			  -0.03180			 0.19464
	80.00			  9.98705			  0.08067			 0.01497
	80.25			  9.90991			  0.09062			 0.05157
	80.50			  9.88721			  -0.09284			 -0.03633
	80.75			  9.90144			  -0.16063			 -0.07833
	81.00			  9.82722			  -0.22015			 0.14052
	81.25			  9.82210			  -0.16484			 0.10995
	81.50			  9.85697			  0.07072			 0.10500
	81.75			  9.84445			  -0.03585			 -0.03310
	82.00			  9.89056			  -0.14663			 -0.01159
	82.25			  9.84238			  -0.13871			 0.04154
	82.50			  9.85960			  -0.15051			 0.04962
	82.75			  9.91752			  -0.14191			 0.17308
	83.00			  9.96691			  -0.18339			 0.15420
	83.25			  9.89105			  -0.25303			 0.05358
	83.50			  9.78119			  -0.22234			 0.00222
	83.75			  9.75749			  -0.23566			 0.13540
	84.00			  9.88088			  -0.27074			 0.18236
	84.25			  9.95524			  -0.16552			 0.20629
	84.50			  10.01167			  -0.18643			 0.22255
	84.75			  10.03124			  -0.16349			 0.23467
	85.00			  10.03871			  -0.15321			 0.34051
	85.25			  10.12210			  -0.24780			 0.39221
	85.50			  10.09136			  -0.29384			 0.39108
	85.75			  10.05771			  -0.25674			 0.37311
	86.00			  10.11435			  -0.15911			 0.37776
	86.25			  10.11691			  -0.18137			 0.28934
	86.50			  10.04219			  -0.19772			 0.27854
	86.75			  10.00299			  -0.25354			 0.26881
	87.00			  9.93539			  -0.14967			 0.30838
	87.25			  9.94506			  -0.18002			 0.16689
	87.50			  10.08126			  -0.21307			 0.16646
	87.75			  10.00612			  -0.17243			 0.07887
	88.00			  9.99779			  -0.02101			 0.08867
	88.25			  9.96307			  -0.09739			 0.10887
	88.50			  9.91838			  -0.05355			 -0.08826
	88.75			  9.97289			  -0.18036			 -0.13235
	89.00			  9.99651			  -0.16838			 -0.21125
	89.25			  9.89568			  -0.11426			 -0.10438
	89.50			  9.93097			  -0.01022			 -0.03802
	89.75			  10.05714			  -0.01831			 0.04209
	90.00			  10.04952			  -0.03129			 0.00435
	90.25			  10.00839			  -0.03146			 0.02950
	90.50			  10.06589			  -0.01899			 -0.01276
	90.75			  10.04632			  -0.12370			 0.03070
	91.00			  9.98342			  -0.16501			 0.01775
	91.25			  9.91617			  -0.14545			 -0.03753
	91.50			  10.04632			  -0.12218			 0.02713
	91.75			  10.07571			  0.01406			 0.10989
	92.00			  10.14459			  0.07881			 0.13691
	92.25			  10.24877			  0.13193			 0.09673
	92.50			  10.18608			  0.05487			 0.13756
	92.75			  10.17113			  0.00614			 0.12404
	93.00			  10.10965			  0.08792			 0.16370
	93.25			  10.00605			  0.14323			 0.13084
	93.50			  9.97701			  0.08977			 0.09702
	93.75			  9.94336			  0.16565			 0.05220
	94.00			  9.88351			  0.23158			 0.05080
	94.25			  9.91012			  0.13463			 -0.00320
	94.50			  9.87597			  -0.02270			 -0.08251
	94.75			  9.89219			  -0.02759			 -0.01719
	95.00			  9.89618			  0.01373			 0.09700
	95.25			  9.94193			  0.01744			 0.13620
	95.50			  9.89120			  -0.03838			 -0.04165
	95.75			  9.92870			  -0.03585			 -0.07577
	96.00			  9.92350			  -0.09149			 -0.13824
	96.25			  10.04013			  -0.16198			 -0.12575
	96.50			  10.05450			  -0.22437			 -0.11548
	96.75			  9.94264			  -0.21357			 -0.16562
	97.00			  9.90557			  -0.29637			 -0.11976
	97.25			  9.98128			  -0.33380			 -0.01619
	97.50			  10.00512			  -0.33178			 -0.10251
	97.75			  9.97210			  -0.31154			 -0.12413
	98.00			  9.92201			  -0.33245			 -0.14501
	98.25			  9.89789			  -0.39366			 -0.08617
	98.50			  9.87241			  -0.43278			 -0.11081
	98.75			  9.97410			  -0.27259			 -0.18263
	99.00			  9.93631			  -0.29468			 -0.10815
	99.25			  9.88344			  -0.26399			 -0.18155
	99.50			  9.89084			  -0.26568			 -0.04735
	99.75			  9.88664			  -0.30244			 0.01986
	100.00			  9.87042			  -0.26382			 -0.01670
	100.25			  9.77279			  -0.12960			 0.02378
	100.50			  9.70505			  -0.17665			 -0.00355
	100.75			  9.74134			  -0.17125			 -0.04305
	101.00			  9.71415			  -0.08947			 -0.10450
	101.25			  9.66484			  -0.15102			 -0.14652
	101.50			  9.73401			  -0.22386			 -0.04504
	101.75			  9.72867			  -0.24494			 -0.01343
	102.00			  9.69473			  -0.24426			 -0.07835
	102.25			  9.73315			  -0.26264			 -0.14928
	102.50			  9.75315			  -0.19266			 -0.13129
	102.75			  9.73152			  -0.23667			 -0.07190
	103.00			  9.76574			  -0.18659			 0.09736
	103.25			  9.78560			  -0.18356			 0.06182
	103.50			  9.88913			  -0.19233			 0.00918
	103.75			  9.85213			  -0.18609			 -0.12924
	104.00			  9.80104			  -0.23313			 -0.10616
	104.25			  9.81861			  -0.17799			 -0.03619
	104.50			  9.81271			  -0.16703			 -0.06436
	104.75			  9.73991			  -0.18221			 -0.00160
	105.00			  9.82886			  -0.11561			 0.07317
	105.25			  9.76873			  -0.17412			 -0.00125
	105.50			  9.76147			  -0.11122			 -0.05771
	105.75			  9.77962			  -0.08138			 -0.07460
	106.00			  9.87789			  -0.05271			 -0.01431
	106.25			  9.88686			  -0.06030			 0.06953
	106.50			  9.92820			  -0.08036			 0.04682
	106.75			  9.92820			  -0.14124			 -0.00759
	107.00			  10.00790			  -0.19384			 0.02296
	107.25			  10.01096			  -0.21071			 0.02573
	107.50			  10.13064			  -0.15641			 -0.04145
	107.75			  10.18117			  -0.11864			 0.04751
	108.00			  10.19732			  -0.15270			 -0.06715
	108.25			  10.14480			  -0.28372			 -0.01219
	108.50			  10.10730			  -0.36736			 -0.02263
	108.75			  10.18287			  -0.45504			 -0.00600
	109.00			  10.11285			  -0.29519			 -0.15772
	109.25			  10.05963			  -0.18845			 -0.15031
	109.50			  10.01202			  -0.17783			 -0.10157
	109.75			  9.98164			  -0.30379			 -0.01406
	110.00			  9.87120			  -0.21088			 0.00195
	110.25			  9.87896			  -0.19570			 -0.02283
	110.50			  10.02853			  -0.16484			 0.10349
	110.75			  9.81641			  -0.17698			 0.00439
	111.00			  9.75948			  -0.14478			 0.06793
	111.25			  9.74824			  -0.26838			 0.03328
	111.50			  9.76034			  -0.33734			 0.10822
	111.75			  9.91226			  -0.39585			 0.16638
	112.00			  9.88486			  -0.28035			 0.17692
	112.25			  9.80438			  -0.20464			 0.13676
	112.50			  9.86807			  -0.28979			 0.07432
	112.75			  9.95396			  -0.19401			 0.15613
	113.00			  9.90486			  -0.17681			 0.04615
	113.25			  9.91802			  -0.08576			 0.11675
	113.50			  10.01629			  -0.12690			 0.13674
	113.75			  9.98399			  -0.19384			 0.15304
	114.00			  10.01145			  -0.20228			 0.17850
	114.25			  9.94727			  -0.07817			 0.17809
	114.50			  9.98861			  -0.02084			 0.12168
	114.75			  10.00398			  -0.05389			 0.13102
	115.00			  9.97111			  -0.06907			 -0.07382
	115.25			  9.93709			  -0.15304			 -0.07437
	115.50			  9.90493			  -0.21357			 -0.14110
	115.75			  9.96926			  -0.12859			 -0.01987
	116.00			  9.94506			  -0.14005			 0.09663
	116.25			  9.88195			  -0.21593			 0.06277
	116.50			  9.82125			  -0.26753			 0.09255
	116.75			  9.88059			  -0.25708			 0.03460
	117.00			  9.91866			  -0.31896			 -0.04039
	117.25			  9.98150			  -0.27107			 -0.13478
	117.50			  9.92500			  -0.22622			 -0.23671
	117.75			  9.94827			  -0.20885			 -0.19209
	118.00			  10.00932			  -0.18946			 -0.15573
	118.25			  9.95232			  -0.22318			 -0.17067
	118.50			  9.87220			  -0.27613			 -0.12878
	118.75			  9.87789			  -0.15321			 -0.05519
	119.00			  9.88166			  -0.16855			 0.01034
	119.25			  9.90621			  -0.20464			 0.02684
	119.50			  9.83221			  -0.22352			 0.03563
	119.75			  9.88294			  -0.18727			 -0.07393
	120.00			  9.92308			  -0.15843			 -0.12896
	120.25			  9.89917			  -0.16771			 -0.12181
	120.50			  9.85583			  -0.11055			 -0.18647
	120.75			  9.77329			  -0.09250			 -0.05084
	121.00			  9.74077			  0.01626			 0.02252
	121.25			  9.80268			  -0.05811			 0.09093
	121.50			  9.94250			  -0.22909			 0.12866
	121.75			  9.88586			  -0.25337			 0.18236
	122.00			  9.88002			  -0.22706			 0.15739
	122.25			  9.76902			  -0.17058			 0.15850
	122.50			  9.79207			  -0.15017			 0.19038
	122.75			  9.77677			  -0.16467			 0.15008
	123.00			  9.86899			  -0.26214			 0.08660
	123.25			  9.81413			  -0.33245			 0.14038
	123.50			  9.76489			  -0.35521			 0.07905
	123.75			  9.63439			  -0.33802			 0.13173
	124.00			  9.65203			  -0.26601			 0.09771
	124.25			  9.64990			  -0.04259			 -0.00716
	124.50			  9.70505			  -0.09200			 -0.01081
	124.75			  9.71928			  -0.10835			 0.04540
	125.00			  9.73159			  -0.05271			 -0.00805
	125.25			  9.76133			  -0.02000			 0.11196
	125.50			  9.84402			  -0.10633			 0.12270
	125.75			  9.85284			  -0.13112			 0.21441
	126.00			  9.92009			  -0.17563			 0.14943
	126.25			  10.03800			  -0.19064			 0.08025
	126.50			  9.93112			  -0.18592			 0.01988
	126.75			  9.94499			  -0.25219			 0.03468
	127.00			  10.01864			  -0.26753			 0.12300
	127.25			  10.06966			  -0.19148			 -0.03808
	127.50			  10.06617			  -0.05338			 -0.04924
	127.75			  10.02184			  -0.11291			 -0.00340
	128.00			  9.99502			  -0.05743			 -0.03960
	128.25			  10.07414			  -0.07446			 0.04797
	128.50			  10.07372			  -0.00061			 0.03492
	128.75			  9.97623			  -0.02084			 -0.10933
	129.00			  10.01921			  -0.04546			 -0.09500
	129.25			  10.05884			  0.04880			 0.02859
	129.50			  10.04881			  0.08236			 -0.02433
	129.75			  10.06070			  -0.02118			 -0.01788
	130.00			  10.04134			  -0.03838			 0.02233
	130.25			  10.05130			  -0.04816			 0.06961
	130.50			  9.96812			  -0.06198			 0.05445
	130.75			  9.94855			  -0.05102			 0.06015
	131.00			  9.97402			  -0.18710			 0.05031
	131.25			  10.00128			  -0.19772			 -0.00154
	131.50			  10.03622			  -0.18811			 0.01308
	131.75			  10.03245			  -0.19064			 -0.03582
	132.00			  9.96556			  -0.11021			 0.03062
	132.25			  10.02134			  -0.16518			 -0.04240
	132.50			  10.06852			  -0.17395			 -0.02253
	132.75			  10.03088			  -0.20565			 -0.05515
	133.00			  9.96954			  -0.24865			 -0.09605
	133.25			  10.07898			  -0.29215			 -0.24201
	133.50			  10.19988			  -0.17344			 -0.12352
	133.75			  10.10232			  -0.13567			 -0.14114
	134.00			  10.11919			  -0.14967			 -0.01696
	134.25			  10.03928			  -0.24055			 -0.00123
	134.50			  9.97723			  -0.29502			 -0.09041
	134.75			  10.06112			  -0.26517			 -0.09471
	135.00			  10.11406			  -0.18895			 -0.10032
	135.25			  10.06504			  -0.17024			 -0.12626
	135.50			  10.15968			  -0.06300			 -0.12652
	135.75			  10.20714			  -0.04074			 -0.11714
	136.00			  10.08567			  -0.07783			 -0.18042
	136.25			  10.00733			  -0.14157			 -0.12778
	136.50			  10.02611			  -0.11493			 -0.04715
	136.75			  10.02085			  -0.22926			 -0.03929
	137.00			  9.94841			  -0.28945			 -0.06272
	137.25			  9.87803			  -0.20582			 -0.17855
	137.50			  9.93361			  -0.19250			 -0.16773
	137.75			  9.95182			  -0.17159			 -0.09944
	138.00			  10.02540			  -0.35960			 -0.22950
	138.25			  9.98022			  -0.37292			 -0.25871
	138.50			  10.10061			  -0.41457			 -0.22792
	138.75			  10.01615			  -0.36415			 -0.19534
	139.00			  10.05123			  -0.35167			 -0.16172
	139.25			  9.91582			  -0.44998			 -0.18360
	139.50			  9.96577			  -0.41035			 -0.20299
	139.75			  10.01530			  -0.43919			 -0.16911
	140.00			  9.96214			  -0.44627			 -0.06067
	140.25			  9.94414			  -0.32149			 -0.15318
	140.50			  9.91219			  -0.28355			 -0.13830
	140.75			  9.94535			  -0.28945			 -0.26687
	141.00			  9.78780			  -0.29114			 -0.11532
	141.25			  9.81427			  -0.39788			 -0.09952
	141.50			  9.83420			  -0.49787			 -0.06225
	141.75			  9.86544			  -0.36145			 -0.00148
	142.00			  10.02362			  -0.32486			 -0.01459
	142.25			  9.96570			  -0.32621			 0.07930
	142.50			  9.91881			  -0.37646			 -0.01696
	142.75			  9.89931			  -0.32571			 -0.02500
	143.00			  9.81185			  -0.19975			 0.03811
	143.25			  9.78610			  -0.23549			 -0.13342
	143.50			  9.86665			  -0.21762			 -0.13369
	143.75			  9.82395			  -0.24915			 -0.07634
	144.00			  9.87910			  -0.16906			 -0.06824
	144.25			  9.92201			  -0.08407			 -0.17327
	144.50			  9.84743			  -0.13736			 -0.15981
	144.75			  9.84971			  -0.17209			 -0.16519
	145.00			  9.93197			  -0.14596			 -0.05679
	145.25			  9.88401			  -0.17226			 0.07020
	145.50			  9.90507			  -0.05659			 -0.04508
	145.75			  9.90472			  0.02435			 0.08437
	146.00			  9.95623			  0.01035			 -0.00860
	146.25			  9.91468			  0.01626			 -0.11178
	146.50			  9.89881			  0.02755			 -0.13241
	146.75			  9.88614			  -0.06215			 -0.03921
	147.00			  9.96093			  -0.09520			 -0.06097
	147.25			  9.90166			  -0.18879			 -0.10025
	147.50			  9.92414			  -0.11915			 -0.12628
	147.75			  9.98235			  -0.20497			 -0.14920
	148.00			  10.11115			  -0.28945			 -0.23551
	148.25			  10.19198			  -0.25387			 -0.25254
	148.50			  10.11833			  -0.15118			 -0.22100
	148.75			  10.05949			  -0.15236			 -0.25443
	149.00			  10.20073			  -0.10279			 -0.15011
	149.25			  10.12438			  0.03008			 -0.08907
	149.50			  10.19540			  0.05672			 -0.15123
	149.75			  10.26129			  -0.05187			 -0.10129
	150.00			  10.22571			  -0.10599			 -0.12786
	150.25			  10.20031			  -0.08441			 -0.22337
	150.50			  10.14815			  -0.13685			 -0.10206
	150.75			  10.05458			  -0.13786			 -0.08878
	151.00			  10.08275			  -0.13061			 -0.03174
	151.25			  10.12758			  -0.22369			 -0.05354
	151.50			  10.17078			  -0.17091			 -0.07719
	151.75			  10.15164			  -0.17007			 -0.01839
	152.00			  10.14061			  -0.31272			 0.09466
	152.25			  10.15719			  -0.19654			 0.06533
	152.50			  10.22272			  -0.11274			 0.09024
	152.75			  10.30576			  -0.15338			 0.08979
	153.00			  10.25240			  -0.29316			 0.11478
	153.25			  10.27296			  -0.35420			 0.10408
	153.50			  10.28470			  -0.32284			 0.03585
	153.75			  10.20202			  -0.27192			 0.06835
	154.00			  10.19518			  -0.25421			 0.08218
	154.25			  10.24820			  -0.37966			 0.05965
	154.50			  10.34106			  -0.30058			 0.15010
	154.75			  10.48387			  -0.36247			 -0.01516
	155.00			  10.52842			  -0.27664			 -0.03550
	155.25			  10.35187			  -0.23010			 -0.05068
	155.50			  10.30555			  -0.18710			 -0.10565
	155.75			  10.37344			  -0.10785			 -0.14073
	156.00			  10.32234			  -0.25978			 -0.08272
	156.25			  10.30875			  -0.22639			 -0.13574
	156.50			  10.26421			  -0.13702			 -0.02210
	156.75			  10.20237			  -0.19317			 -0.01634
	157.00			  10.14623			  -0.18777			 -0.08251
	157.25			  10.07720			  -0.20211			 -0.12737
	157.50			  10.19419			  -0.26281			 -0.18218
	157.75			  10.13242			  -0.25404			 -0.16558
	158.00			  10.08133			  -0.27765			 -0.07585
	158.25			  10.16302			  -0.24325			 0.00898
	158.50			  10.19789			  -0.16923			 0.05615
	158.75			  10.18579			  -0.08947			 0.04799
	159.00			  10.19590			  -0.14090			 0.03257
	159.25			  10.12431			  -0.13061			 0.05867
	159.50			  10.09798			  -0.05069			 0.12505
	159.75			  10.05735			  -0.06687			 0.10668
	160.00			  10.00000			  -0.15456			 0.15107
	160.25			  10.12061			  -0.18676			 0.19803
	160.50			  10.06931			  -0.18491			 0.15126
	160.75			  10.05180			  -0.18727			 0.11041
	161.00			  10.05152			  -0.22774			 0.14373
	161.25			  10.04162			  -0.21340			 0.11927
	161.50			  10.07180			  -0.19823			 0.10928
	161.75			  10.06575			  -0.19890			 0.07761
	162.00			  10.03408			  -0.14309			 -0.02998
	162.25			  10.06418			  -0.11965			 -0.00416
	162.50			  10.12787			  -0.06013			 -0.02513
	162.75			  10.03657			  -0.06991			 -0.02523
	163.00			  10.04767			  -0.02354			 0.02305
	163.25			  10.06319			  -0.05996			 -0.11386
	163.50			  10.12104			  0.13227			 -0.16095
	163.75			  9.92642			  0.05791			 -0.10354
	164.00			  9.91781			  0.08809			 -0.07332
	164.25			  9.97794			  0.05352			 -0.08810
	164.50			  9.89433			  0.07612			 -0.01230
	164.75			  9.93724			  0.16616			 -0.01755
	165.00			  9.90877			  0.21270			 -0.04772
	165.25			  9.95709			  0.22298			 0.00959
	165.50			  9.96847			  0.20157			 -0.09260
	165.75			  10.01337			  0.24356			 -0.03680