--------------TurbSim v2.00.* User Time Series Input File-----------------------
     Time series input from low-res turbsim run
--------------------------------------------------------------------------------
          3 nComp - Number of velocity components in the file
          1 nPoints - Number of time series points contained in this file (-)
          1 RefPtID - Index of the reference point (1-nPoints)
     Pointyi Pointzi ! nPoints listed in order of increasing height
       (m)     (m)
       2.73515   94.00000
--------Time Series-------------------------------------------------------------
Elapsed Time         Point01u             Point01v           Point01w
         (s)            (m/s)                (m/s)              (m/s)
	0.00			  10.24296			  0.24089			 0.15956
	0.25			  10.32752			  0.24201			 0.05763
	0.50			  10.30175			  0.18684			 -0.13333
	0.75			  10.34668			  0.10660			 -0.04069
	1.00			  10.20157			  0.14662			 -0.06616
	1.25			  10.08575			  0.18515			 -0.13916
	1.50			  10.01859			  0.23210			 -0.00840
	1.75			  9.92342			  0.25959			 -0.08202
	2.00			  9.93645			  0.14513			 -0.08232
	2.25			  9.98687			  0.23734			 -0.01925
	2.50			  10.15850			  0.24818			 0.16595
	2.75			  10.18836			  0.08696			 0.19854
	3.00			  9.98408			  0.16682			 0.08311
	3.25			  9.89282			  0.22985			 0.22108
	3.50			  10.05189			  0.11483			 0.16701
	3.75			  10.17236			  0.14756			 0.08827
	4.00			  9.99319			  0.15411			 -0.12530
	4.25			  10.01589			  0.28241			 0.07483
	4.50			  9.91235			  0.32487			 0.11103
	4.75			  9.95701			  0.43391			 0.08390
	5.00			  9.98231			  0.42849			 0.11240
	5.25			  10.13217			  0.38453			 0.15672
	5.50			  10.09347			  0.40417			 0.23944
	5.75			  10.05096			  0.31140			 0.06399
	6.00			  10.00305			  0.34844			 -0.01787
	6.25			  10.00928			  0.22256			 -0.12814
	6.50			  10.12454			  0.12942			 -0.05230
	6.75			  10.18519			  0.19095			 -0.12450
	7.00			  10.03198			  0.28297			 -0.07013
	7.25			  9.90612			  0.14157			 -0.06699
	7.50			  10.01096			  0.18291			 -0.13379
	7.75			  9.98073			  0.23509			 0.01802
	8.00			  10.02910			  0.19974			 -0.14488
	8.25			  10.04184			  0.27343			 -0.25160
	8.50			  9.97580			  0.18796			 -0.19723
	8.75			  9.95756			  0.10809			 -0.22423
	9.00			  9.76249			  0.13652			 -0.31837
	9.25			  9.91328			  0.21658			 -0.40713
	9.50			  10.11663			  0.17580			 -0.22209
	9.75			  10.07338			  0.03029			 -0.09802
	10.00			  10.12975			  -0.19023			 -0.12545
	10.25			  10.02798			  -0.16348			 -0.16733
	10.50			  10.12947			  -0.15525			 -0.21137
	10.75			  10.15682			  -0.25157			 -0.12866
	11.00			  9.90621			  -0.20856			 -0.29916
	11.25			  9.74035			  -0.30675			 -0.21773
	11.50			  9.88370			  -0.40943			 -0.39476
	11.75			  10.13431			  -0.52932			 -0.34546
	12.00			  9.99291			  -0.56972			 -0.45494
	12.25			  9.83133			  -0.57945			 -0.56218
	12.50			  9.78305			  -0.65782			 -0.49489
	12.75			  9.84863			  -0.66866			 -0.35450
	13.00			  10.00398			  -0.62546			 -0.36865
	13.25			  10.12752			  -0.40981			 -0.34745
	13.50			  10.16966			  -0.20818			 -0.32552
	13.75			  10.19412			  -0.27065			 -0.36202
	14.00			  10.12538			  -0.19135			 -0.35169
	14.25			  10.14529			  -0.22520			 -0.23205
	14.50			  10.17859			  -0.24522			 -0.30600
	14.75			  10.04277			  -0.37277			 -0.18321
	15.00			  9.92556			  -0.42009			 -0.26473
	15.25			  10.00138			  -0.41916			 -0.04506
	15.50			  9.92910			  -0.55775			 -0.12362
	15.75			  9.84417			  -0.41261			 -0.09005
	16.00			  9.85645			  -0.48574			 -0.21235
	16.25			  9.95384			  -0.55981			 -0.03379
	16.50			  10.07989			  -0.55551			 -0.17548
	16.75			  10.17812			  -0.55102			 -0.09741
	17.00			  10.24966			  -0.56000			 -0.08712
	17.25			  10.10919			  -0.79286			 0.07654
	17.50			  10.04947			  -0.69653			 0.01585
	17.75			  10.00696			  -0.50856			 0.06836
	18.00			  10.07691			  -0.36454			 -0.00196
	18.25			  10.10240			  -0.36024			 -0.05563
	18.50			  10.04398			  -0.27402			 0.03179
	18.75			  10.07189			  -0.31274			 0.10690
	19.00			  10.06380			  -0.29179			 0.15257
	19.25			  10.20529			  -0.34116			 0.11943
	19.50			  10.15496			  -0.44815			 0.14716
	19.75			  10.17598			  -0.58225			 0.05027
	20.00			  10.07412			  -0.53793			 0.15654
	20.25			  10.05822			  -0.54503			 0.29393
	20.50			  10.16008			  -0.56841			 0.10422
	20.75			  10.15850			  -0.60133			 -0.02389
	21.00			  10.11561			  -0.68026			 -0.08406
	21.25			  9.93310			  -0.63500			 0.08296
	21.50			  9.83068			  -0.39765			 0.02709
	21.75			  9.84798			  -0.65090			 0.03054
	22.00			  9.91124			  -0.56804			 -0.05199
	22.25			  9.85310			  -0.65669			 -0.33474
	22.50			  9.85924			  -0.48481			 -0.38083
	22.75			  9.80677			  -0.44067			 -0.45216
	23.00			  9.89738			  -0.39634			 -0.38942
	23.25			  10.01747			  -0.46966			 -0.29467
	23.50			  10.02435			  -0.61611			 -0.23294
	23.75			  9.91635			  -0.55476			 -0.21751
	24.00			  9.98528			  -0.58113			 -0.02453
	24.25			  9.83375			  -0.49958			 -0.17527
	24.50			  9.84649			  -0.75825			 -0.15016
	24.75			  9.92296			  -0.77079			 -0.04255
	25.00			  10.01515			  -0.63836			 -0.28972
	25.25			  9.80528			  -0.73581			 -0.28431
	25.50			  9.85775			  -0.76835			 -0.32790
	25.75			  9.70444			  -0.69223			 -0.42604
	26.00			  9.78752			  -0.87590			 -0.32420
	26.25			  9.73468			  -0.81287			 -0.23672
	26.50			  9.80231			  -0.75507			 -0.20319
	26.75			  9.75933			  -0.90695			 -0.37158
	27.00			  9.65337			  -1.00383			 -0.31657
	27.25			  9.57123			  -0.84205			 -0.35796
	27.50			  9.67765			  -0.88450			 -0.37057
	27.75			  9.60398			  -0.93238			 -0.14228
	28.00			  9.75235			  -0.76181			 -0.08140
	28.25			  9.99021			  -0.58693			 -0.12627
	28.50			  9.82091			  -0.58973			 -0.11320
	28.75			  9.66519			  -0.57346			 0.05250
	29.00			  9.66314			  -0.54148			 -0.02099
	29.25			  9.79589			  -0.47172			 -0.01011
	29.50			  9.74910			  -0.51043			 -0.06222
	29.75			  9.92128			  -0.80389			 -0.35450
	30.00			  9.85040			  -0.83101			 -0.22255
	30.25			  9.83272			  -0.60863			 -0.03797
	30.50			  9.81403			  -0.35706			 -0.26140
	30.75			  9.55049			  -0.48219			 -0.29546
	31.00			  9.50928			  -0.37146			 -0.18055
	31.25			  9.58221			  -0.46311			 -0.02481
	31.50			  9.63514			  -0.47976			 0.06426
	31.75			  9.59040			  -0.43094			 0.07645
	32.00			  9.55105			  -0.32059			 0.23021
	32.25			  9.48937			  -0.42215			 0.35328
	32.50			  9.45542			  -0.37034			 0.19221
	32.75			  9.41784			  -0.19472			 0.28415
	33.00			  9.38007			  -0.12177			 0.50310
	33.25			  9.41077			  -0.01853			 0.50588
	33.50			  9.41449			  0.18665			 0.34628
	33.75			  9.42137			  0.11109			 0.29750
	34.00			  9.50035			  -0.03274			 0.09123
	34.25			  9.60156			  -0.00469			 0.13800
	34.50			  9.60575			  -0.08343			 0.17997
	34.75			  9.72565			  -0.18162			 0.13977
	35.00			  9.60100			  -0.16573			 -0.01137
	35.25			  9.38091			  -0.25980			 -0.07380
	35.50			  9.51719			  -0.22445			 0.01747
	35.75			  9.53254			  -0.35800			 0.18363
	36.00			  9.35086			  -0.24484			 0.14233
	36.25			  9.38612			  -0.09409			 0.00870
	36.50			  9.45635			  -0.27383			 -0.04976
	36.75			  9.54844			  -0.36810			 -0.10838
	37.00			  9.45319			  -0.49341			 0.02138
	37.25			  9.29467			  -0.58300			 0.09927
	37.50			  9.29858			  -0.51941			 0.06353
	37.75			  9.35644			  -0.50725			 0.10327
	38.00			  9.56137			  -0.43599			 -0.08678
	38.25			  9.61803			  -0.42252			 -0.15483
	38.50			  9.61170			  -0.26018			 -0.16601
	38.75			  9.71049			  -0.22202			 -0.04768
	39.00			  9.72147			  -0.19434			 0.11371
	39.25			  9.71458			  -0.10438			 0.16295
	39.50			  9.81524			  0.10005			 0.05189
	39.75			  9.77645			  -0.05145			 -0.08064
	40.00			  9.70240			  -0.19397			 -0.08522
	40.25			  9.68044			  -0.10569			 -0.02251
	40.50			  9.78538			  -0.14197			 0.04633
	40.75			  9.82305			  -0.17452			 0.09606
	41.00			  9.89207			  0.00840			 0.11216
	41.25			  9.99924			  -0.07501			 0.04542
	41.50			  10.02584			  -0.12308			 -0.15651
	41.75			  9.84352			  -0.23455			 -0.21647
	42.00			  9.63840			  -0.09203			 -0.35121
	42.25			  9.49942			  -0.07501			 -0.34113
	42.50			  9.60286			  -0.00319			 -0.29778
	42.75			  9.54602			  -0.06192			 -0.18907
	43.00			  9.54398			  -0.10307			 -0.17545
	43.25			  9.46221			  -0.01778			 -0.27225
	43.50			  9.43616			  -0.05201			 -0.23718
	43.75			  9.43644			  0.05329			 -0.36358
	44.00			  9.42779			  0.00523			 -0.24286
	44.25			  9.41114			  -0.03199			 -0.26883
	44.50			  9.44072			  -0.05350			 -0.21259
	44.75			  9.49068			  -0.14160			 -0.13070
	45.00			  9.46509			  -0.01497			 -0.02774
	45.25			  9.52556			  -0.01703			 -0.19167
	45.50			  9.62491			  -0.06229			 -0.17838
	45.75			  9.69254			  -0.03910			 -0.20028
	46.00			  9.65886			  -0.09484			 -0.04854
	46.25			  9.81486			  -0.25644			 -0.08852
	46.50			  9.81663			  -0.07913			 -0.16586
	46.75			  9.76584			  0.06582			 -0.19747
	47.00			  9.69654			  -0.00600			 -0.11018
	47.25			  9.70556			  -0.26859			 -0.13794
	47.50			  9.59551			  -0.34752			 -0.23474
	47.75			  9.57542			  -0.52203			 -0.21006
	48.00			  9.54640			  -0.64622			 -0.25511
	48.25			  9.57012			  -0.63818			 -0.14766
	48.50			  9.40686			  -0.57234			 -0.08275
	48.75			  9.46863			  -0.36548			 0.02825
	49.00			  9.65430			  -0.27047			 0.03961
	49.25			  9.61300			  -0.21305			 0.15455
	49.50			  9.66993			  -0.31984			 0.03375
	49.75			  9.61561			  -0.39353			 -0.17793
	50.00			  9.63691			  -0.47957			 -0.07401
	50.25			  9.45337			  -0.34996			 0.03390
	50.50			  9.68798			  -0.30301			 0.06454
	50.75			  9.85589			  -0.29628			 0.01469
	51.00			  9.80063			  -0.34322			 -0.13388
	51.25			  9.86268			  -0.45170			 0.15397
	51.50			  9.80631			  -0.48275			 0.05580
	51.75			  9.74956			  -0.41747			 0.13650
	52.00			  9.59570			  -0.21155			 0.35322
	52.25			  9.52016			  -0.20051			 0.29408
	52.50			  9.60389			  -0.14964			 0.30190
	52.75			  9.61449			  -0.22988			 0.24918
	53.00			  9.73421			  -0.39765			 0.24148
	53.25			  9.55263			  -0.42421			 0.27282
	53.50			  9.38472			  -0.46685			 0.17092
	53.75			  9.54695			  -0.47901			 0.19906
	54.00			  9.45254			  -0.54298			 0.34057
	54.25			  9.67617			  -0.51081			 0.37753
	54.50			  9.94621			  -0.64491			 0.47402
	54.75			  9.93273			  -0.53961			 0.46495
	55.00			  9.92082			  -0.70701			 0.43602
	55.25			  9.68547			  -0.63855			 0.39017
	55.50			  9.56863			  -0.57851			 0.17398
	55.75			  9.55133			  -0.64678			 0.21726
	56.00			  9.63384			  -0.56074			 0.21338
	56.25			  9.71226			  -0.60152			 0.14915
	56.50			  9.75654			  -0.40868			 0.12999
	56.75			  9.81849			  -0.21866			 0.17337
	57.00			  9.82017			  -0.33649			 0.01609
	57.25			  9.80928			  -0.22315			 -0.09741
	57.50			  9.60519			  -0.16965			 -0.13211
	57.75			  9.72649			  -0.30712			 -0.12175
	58.00			  9.71031			  -0.46274			 -0.16959
	58.25			  9.58109			  -0.36473			 -0.19286
	58.50			  9.61682			  -0.45731			 -0.34290
	58.75			  9.68370			  -0.35444			 -0.24635
	59.00			  9.62184			  -0.15993			 0.02758
	59.25			  9.78826			  -0.17863			 -0.04997
	59.50			  9.66035			  -0.32714			 -0.04533
	59.75			  9.83998			  -0.41710			 -0.09903
	60.00			  9.98026			  -0.38923			 0.02810
	60.25			  9.77626			  -0.25101			 0.04927
	60.50			  9.66426			  -0.18331			 0.05327
	60.75			  9.81449			  -0.04883			 0.12312
	61.00			  9.85217			  -0.16442			 0.07376
	61.25			  9.66361			  -0.25756			 0.12734
	61.50			  9.53765			  -0.17489			 0.13262
	61.75			  9.50026			  0.10286			 0.04426
	62.00			  9.31830			  -0.01984			 -0.05303
	62.25			  9.27914			  -0.21005			 -0.09802
	62.50			  9.41477			  -0.22576			 -0.01802
	62.75			  9.46240			  -0.23474			 -0.07050
	63.00			  9.30332			  -0.25812			 -0.08556
	63.25			  9.31328			  -0.29946			 -0.07655
	63.50			  9.05979			  -0.40045			 0.20153
	63.75			  9.01104			  -0.30507			 0.24109
	64.00			  9.20128			  -0.57533			 0.02700
	64.25			  9.33309			  -0.43038			 0.07294
	64.50			  9.26807			  -0.53867			 0.17279
	64.75			  9.33523			  -0.72664			 0.16695
	65.00			  9.26900			  -0.66698			 0.18522
	65.25			  9.15244			  -0.73487			 0.18821
	65.50			  9.35449			  -0.70981			 0.12728
	65.75			  9.15216			  -0.64397			 0.18888
	66.00			  9.11421			  -0.43412			 0.01176
	66.25			  8.97327			  -0.17246			 -0.01696
	66.50			  8.99337			  -0.18106			 0.00073
	66.75			  9.10965			  -0.14440			 0.04261
	67.00			  9.16472			  -0.01254			 -0.04753
	67.25			  9.19756			  -0.00487			 -0.06396
	67.50			  9.18965			  -0.16049			 -0.02792
	67.75			  9.18295			  -0.16367			 0.09517
	68.00			  9.28221			  -0.23437			 0.17874
	68.25			  9.22481			  -0.40158			 0.23983
	68.50			  9.27951			  -0.40083			 0.21317
	68.75			  9.29588			  -0.29553			 0.19041
	69.00			  9.32481			  -0.37053			 0.20226
	69.25			  9.35523			  -0.63051			 0.20917
	69.50			  9.16583			  -0.35931			 0.12651
	69.75			  9.35365			  -0.47845			 0.21302
	70.00			  9.42137			  -0.48462			 0.06249
	70.25			  9.59775			  -0.51249			 0.28003
	70.50			  9.51728			  -0.52446			 0.17581
	70.75			  9.39049			  -0.34659			 0.25223
	71.00			  9.37021			  -0.32957			 0.18546
	71.25			  9.36035			  -0.34341			 0.35783
	71.50			  9.32556			  -0.38530			 0.18107
	71.75			  9.45365			  -0.40494			 0.20113
	72.00			  9.50137			  -0.46461			 -0.06305
	72.25			  9.36686			  -0.36323			 -0.03562
	72.50			  9.28444			  -0.48780			 0.02773
	72.75			  9.25709			  -0.59422			 0.24924
	73.00			  9.14872			  -0.62677			 0.38492
	73.25			  9.39477			  -0.63144			 0.35221
	73.50			  9.44956			  -0.65875			 0.26668
	73.75			  9.40184			  -0.83438			 0.17083
	74.00			  9.23997			  -0.74105			 0.18720
	74.25			  9.30965			  -0.61742			 0.02419
	74.50			  9.35551			  -0.38643			 0.26140
	74.75			  9.22007			  -0.42589			 0.39457
	75.00			  9.26807			  -0.36604			 0.36427
	75.25			  9.30835			  -0.32976			 0.29408
	75.50			  9.23477			  -0.36286			 0.11393
	75.75			  9.24221			  -0.52914			 0.12941
	76.00			  9.38230			  -0.50220			 0.14857
	76.25			  9.37505			  -0.75507			 0.22752
	76.50			  9.39886			  -0.65669			 0.35593
	76.75			  9.46733			  -0.69391			 0.49158
	77.00			  9.45291			  -0.71449			 0.44506
	77.25			  9.53514			  -0.56280			 0.25486
	77.50			  9.46947			  -0.53793			 0.17664
	77.75			  9.49114			  -0.47527			 0.18296
	78.00			  9.61393			  -0.61031			 0.24585
	78.25			  9.62789			  -0.46292			 0.35242
	78.50			  9.61644			  -0.31760			 0.33923
	78.75			  9.69282			  -0.28150			 0.32615
	79.00			  9.64872			  -0.21043			 0.16161
	79.25			  9.55393			  -0.42196			 0.01130
	79.50			  9.48593			  -0.43188			 -0.06409
	79.75			  9.73393			  -0.33668			 -0.00385
	80.00			  9.71077			  -0.29871			 0.08286
	80.25			  9.67942			  -0.31573			 0.05974
	80.50			  9.65477			  -0.28711			 0.13134
	80.75			  9.69979			  -0.50987			 0.14499
	81.00			  9.56714			  -0.45095			 0.08677
	81.25			  9.71477			  -0.43599			 0.12144
	81.50			  9.56426			  -0.64080			 0.24044
	81.75			  9.60761			  -0.76723			 0.33364
	82.00			  9.52723			  -0.62920			 0.37087
	82.25			  9.62826			  -0.64678			 0.30101
	82.50			  9.65440			  -0.71075			 0.31186
	82.75			  9.66165			  -0.57384			 0.24246
	83.00			  9.69682			  -0.33668			 0.14557
	83.25			  9.82017			  -0.46461			 0.24188
	83.50			  9.95701			  -0.35725			 0.33327
	83.75			  10.02008			  -0.07333			 0.37475
	84.00			  10.21357			  -0.01797			 0.22725
	84.25			  10.21645			  0.03983			 0.38040
	84.50			  10.19161			  -0.13917			 0.29185
	84.75			  10.24826			  -0.28412			 0.28446
	85.00			  10.06454			  -0.23175			 0.35068
	85.25			  10.11812			  -0.27252			 0.29643
	85.50			  10.19812			  -0.26336			 0.43996
	85.75			  10.22836			  -0.16030			 0.48886
	86.00			  10.24482			  0.03272			 0.59113
	86.25			  10.26045			  0.06190			 0.59174
	86.50			  10.08026			  0.05741			 0.48169
	86.75			  9.95998			  0.10922			 0.61031
	87.00			  10.01328			  0.06208			 0.55084
	87.25			  9.92714			  0.20348			 0.55258
	87.50			  9.84538			  0.15635			 0.49732
	87.75			  9.79375			  0.11314			 0.33724
	88.00			  9.78110			  0.37724			 0.31073
	88.25			  9.69226			  0.47094			 0.14023
	88.50			  9.73858			  0.25828			 0.21583
	88.75			  9.63458			  0.28653			 0.34842
	89.00			  9.60314			  0.51209			 0.11176
	89.25			  9.70696			  0.46926			 -0.11800
	89.50			  9.75421			  0.59701			 -0.13773
	89.75			  9.93942			  0.56035			 0.07395
	90.00			  10.07766			  0.32057			 -0.00538
	90.25			  10.14622			  0.30635			 0.02697
	90.50			  10.25515			  0.30972			 0.03063
	90.75			  10.33236			  0.32954			 0.11032
	91.00			  10.21384			  0.25193			 0.18467
	91.25			  10.27654			  0.13484			 -0.02471
	91.50			  10.21189			  0.14719			 0.07630
	91.75			  10.04026			  0.33815			 -0.09005
	92.00			  9.95031			  0.42998			 -0.24357
	92.25			  10.01794			  0.32038			 -0.05572
	92.50			  10.06361			  0.16701			 -0.08721
	92.75			  10.10417			  0.15392			 -0.37662
	93.00			  10.14994			  0.31496			 -0.33865
	93.25			  9.99208			  0.45056			 -0.18159
	93.50			  9.92221			  0.20816			 -0.14365
	93.75			  9.84910			  0.38715			 -0.12246
	94.00			  9.56333			  0.25922			 0.10901
	94.25			  9.53626			  0.17318			 0.08540
	94.50			  9.59598			  0.15167			 0.13959
	94.75			  9.61337			  0.34039			 0.04401
	95.00			  9.68928			  0.21340			 0.05809
	95.25			  9.59877			  0.09856			 0.18015
	95.50			  9.63830			  0.10342			 0.28941
	95.75			  9.69877			  0.16589			 0.14182
	96.00			  9.57412			  0.18422			 0.12251
	96.25			  9.63914			  0.09126			 0.03433
	96.50			  9.50398			  0.29401			 0.05479
	96.75			  9.50026			  0.14662			 -0.02255
	97.00			  9.59877			  0.25174			 0.08109
	97.25			  9.51747			  0.33834			 0.03980
	97.50			  9.39440			  0.31739			 0.06625
	97.75			  9.57068			  0.24538			 0.04239
	98.00			  9.64193			  0.24089			 0.01218
	98.25			  9.65189			  -0.05687			 -0.05410
	98.50			  9.77375			  0.03197			 0.03228
	98.75			  9.78482			  0.02748			 0.10254
	99.00			  9.83059			  0.06807			 0.18681
	99.25			  9.71942			  0.17786			 0.09392
	99.50			  9.79031			  0.21676			 0.05238
	99.75			  9.71970			  0.33759			 0.00485
	100.00			  9.85589			  0.29569			 0.07214
	100.25			  10.00296			  0.10379			 0.24460
	100.50			  9.93775			  0.04020			 0.13406
	100.75			  9.83375			  0.05703			 0.11738
	101.00			  9.79942			  -0.03274			 0.18861
	101.25			  9.64658			  -0.12794			 0.26048
	101.50			  9.49672			  0.01589			 0.17951
	101.75			  9.71403			  0.10866			 -0.01344
	102.00			  9.66993			  0.18216			 0.23165
	102.25			  9.65049			  0.36602			 0.37722
	102.50			  9.69728			  0.43859			 0.32093
	102.75			  9.68351			  0.37743			 0.19099
	103.00			  9.63244			  0.31402			 0.18739
	103.25			  9.49002			  0.32412			 0.20681
	103.50			  9.39728			  0.43223			 0.19050
	103.75			  9.36909			  0.42512			 0.14142
	104.00			  9.29663			  0.48591			 0.13827
	104.25			  9.30314			  0.34339			 0.07715
	104.50			  9.37672			  0.43803			 0.20517
	104.75			  9.40063			  0.31608			 0.28070
	105.00			  9.48063			  0.13952			 0.13742
	105.25			  9.47393			  0.14793			 0.10559
	105.50			  9.32193			  0.26352			 0.14240
	105.75			  9.39030			  0.06021			 0.05284
	106.00			  9.19765			  0.01907			 0.09530
	106.25			  9.12267			  -0.07464			 0.16756
	106.50			  9.37495			  -0.13356			 0.08519
	106.75			  9.36044			  -0.05126			 0.13332
	107.00			  9.34416			  -0.04490			 0.17511
	107.25			  9.43514			  -0.16329			 0.20904
	107.50			  9.50016			  -0.28823			 0.26613
	107.75			  9.62770			  -0.28954			 0.12569
	108.00			  9.63598			  -0.27009			 0.24380
	108.25			  9.58956			  -0.08941			 0.12844
	108.50			  9.59551			  0.00317			 0.03601
	108.75			  9.47728			  0.17655			 0.07633
	109.00			  9.07039			  0.01663			 -0.10043
	109.25			  9.01848			  -0.12271			 -0.16113
	109.50			  9.09086			  -0.16928			 -0.14552
	109.75			  9.04676			  -0.07707			 -0.14069
	110.00			  9.14639			  -0.09428			 -0.05062
	110.25			  9.26788			  -0.08156			 -0.02419
	110.50			  9.15281			  -0.00300			 0.21860
	110.75			  9.22258			  -0.09727			 0.18424
	111.00			  9.22063			  -0.30432			 0.24426
	111.25			  9.31672			  -0.38474			 0.35737
	111.50			  9.35021			  -0.36473			 0.35163
	111.75			  9.45040			  -0.38661			 0.41324
	112.00			  9.47765			  -0.32340			 0.50670
	112.25			  9.49654			  -0.42608			 0.44457
	112.50			  9.43663			  -0.30993			 0.25553
	112.75			  9.47756			  -0.33630			 0.16573
	113.00			  9.48119			  -0.38362			 0.20822
	113.25			  9.56668			  -0.36118			 0.19396
	113.50			  9.73384			  -0.36454			 0.17221
	113.75			  9.71077			  -0.29310			 0.19704
	114.00			  9.65533			  -0.14927			 0.17010
	114.25			  9.62314			  -0.16217			 -0.00501
	114.50			  9.53040			  -0.26598			 0.00259
	114.75			  9.55207			  -0.26336			 0.13195
	115.00			  9.53663			  -0.15824			 0.24332
	115.25			  9.58147			  -0.07277			 0.24490
	115.50			  9.80519			  -0.05089			 0.34863
	115.75			  9.87031			  -0.02582			 0.20376
	116.00			  9.77161			  0.01738			 0.21662
	116.25			  9.80361			  0.01607			 0.06121
	116.50			  9.53886			  0.16720			 0.01658
	116.75			  9.42193			  0.10117			 -0.08122
	117.00			  9.52705			  0.04974			 -0.00523
	117.25			  9.68956			  0.02973			 -0.08425
	117.50			  9.62575			  0.24108			 0.07486
	117.75			  9.48091			  0.22798			 0.13497
	118.00			  9.62314			  0.12886			 0.00501
	118.25			  9.56779			  -0.04266			 0.09578
	118.50			  9.73338			  -0.01329			 0.15700
	118.75			  9.60640			  0.01888			 0.17340
	119.00			  9.72184			  -0.01928			 0.17126
	119.25			  9.64082			  0.00485			 0.01787
	119.50			  9.60454			  -0.04527			 -0.12655
	119.75			  9.56900			  -0.07408			 0.03085
	120.00			  9.68742			  -0.04714			 0.12288
	120.25			  9.57784			  0.10361			 0.23269
	120.50			  9.47895			  0.28035			 0.31131
	120.75			  9.55086			  0.18815			 0.40734
	121.00			  9.36305			  0.20928			 0.25016
	121.25			  9.34453			  0.40174			 0.23971
	121.50			  9.53198			  0.41932			 0.32860
	121.75			  9.53821			  0.32281			 0.27038
	122.00			  9.62361			  0.18253			 0.18024
	122.25			  9.63858			  0.33123			 0.14017
	122.50			  9.42193			  0.50255			 -0.03156
	122.75			  9.09430			  0.47300			 0.05403
	123.00			  9.08388			  0.64077			 0.06157
	123.25			  9.11179			  0.59607			 -0.14582
	123.50			  9.12100			  0.60262			 -0.08476
	123.75			  9.05290			  0.57942			 -0.06360
	124.00			  9.15337			  0.60168			 0.17661
	124.25			  9.08928			  0.61721			 0.00268
	124.50			  9.20090			  0.36602			 0.07804
	124.75			  9.15839			  0.15897			 0.21552
	125.00			  9.20239			  0.16608			 0.23217
	125.25			  9.08444			  0.20947			 0.20416
	125.50			  9.08100			  0.10585			 0.01600
	125.75			  9.36546			  -0.08100			 -0.14417
	126.00			  9.37691			  -0.09839			 -0.04246
	126.25			  9.33867			  -0.00506			 -0.20169
	126.50			  9.30212			  -0.12981			 -0.10557
	126.75			  9.32174			  -0.09652			 -0.00825
	127.00			  9.46565			  -0.27589			 -0.03446
	127.25			  9.54249			  -0.44965			 -0.04035
	127.50			  9.36388			  -0.26691			 -0.04377
	127.75			  9.20044			  -0.06229			 -0.09457
	128.00			  9.21188			  0.06601			 0.08036
	128.25			  9.26956			  -0.04153			 -0.11503
	128.50			  9.22984			  -0.17302			 -0.24378
	128.75			  9.31877			  -0.30151			 -0.01289
	129.00			  9.38193			  -0.37315			 0.00418
	129.25			  9.19095			  -0.46255			 -0.01302
	129.50			  9.24751			  -0.45301			 0.08696
	129.75			  9.22370			  -0.38119			 -0.00061
	130.00			  9.02332			  -0.41897			 -0.15899
	130.25			  8.90286			  -0.43057			 -0.15141
	130.50			  8.90230			  -0.31554			 -0.07404
	130.75			  9.06072			  -0.19827			 -0.08473
	131.00			  9.09532			  -0.29497			 0.11937
	131.25			  9.00760			  -0.16834			 0.13274
	131.50			  8.94555			  -0.09091			 0.18464
	131.75			  9.05886			  -0.12514			 0.13024
	132.00			  9.11262			  -0.00319			 -0.07713
	132.25			  8.91895			  -0.03592			 -0.16406
	132.50			  9.10676			  -0.23792			 -0.07966
	132.75			  9.19467			  -0.26822			 0.05861
	133.00			  9.11197			  -0.17452			 -0.11195
	133.25			  8.87048			  -0.29366			 -0.20911
	133.50			  8.93523			  -0.20893			 -0.13483
	133.75			  8.84472			  -0.02414			 -0.20710
	134.00			  8.82695			  0.11950			 -0.26880
	134.25			  8.93104			  0.16682			 -0.22011
	134.50			  9.02462			  0.14756			 -0.37014
	134.75			  9.07151			  0.12455			 -0.08330
	135.00			  9.06797			  0.02917			 -0.20783
	135.25			  8.85513			  -0.09821			 -0.27906
	135.50			  8.79402			  -0.15675			 -0.31281
	135.75			  8.72425			  -0.17339			 -0.34635
	136.00			  8.68834			  -0.12364			 -0.29971
	136.25			  8.66062			  -0.01516			 -0.04518
	136.50			  8.65225			  -0.24129			 -0.06971
	136.75			  8.68816			  -0.24671			 -0.02948
	137.00			  8.74071			  -0.21080			 -0.02377
	137.25			  8.81206			  -0.28711			 0.10779
	137.50			  8.91383			  -0.21117			 0.12893
	137.75			  8.98760			  -0.05051			 0.15819
	138.00			  9.03728			  -0.11784			 0.01035
	138.25			  9.06044			  -0.11336			 -0.07160
	138.50			  9.03309			  -0.23661			 0.00436
	138.75			  8.98341			  -0.08493			 -0.04347
	139.00			  9.11914			  -0.05388			 -0.00269
	139.25			  9.13421			  -0.08380			 -0.08223
	139.50			  9.10807			  0.01271			 -0.10694
	139.75			  9.19430			  0.05385			 -0.08950
	140.00			  9.28546			  -0.08418			 -0.07420
	140.25			  9.38891			  0.06208			 -0.12359
	140.50			  9.45616			  0.10211			 -0.24946
	140.75			  9.54593			  -0.02975			 -0.18049
	141.00			  9.65737			  0.12549			 -0.09897
	141.25			  9.49123			  -0.04864			 -0.11763
	141.50			  9.65710			  -0.23175			 -0.28392
	141.75			  9.59635			  -0.28505			 -0.42213
	142.00			  9.60500			  -0.28954			 -0.34143
	142.25			  9.87449			  -0.28655			 -0.51367
	142.50			  9.80482			  -0.29235			 -0.44724
	142.75			  9.79589			  -0.27271			 -0.34821
	143.00			  9.82472			  -0.15488			 -0.37335
	143.25			  9.89273			  -0.09428			 -0.29818
	143.50			  9.98705			  -0.05612			 -0.31018
	143.75			  9.87384			  -0.36791			 -0.22777
	144.00			  9.70835			  -0.34883			 -0.33227
	144.25			  9.65310			  -0.42570			 -0.27497
	144.50			  9.76770			  -0.32770			 -0.43963
	144.75			  9.78407			  -0.31835			 -0.40756
	145.00			  9.76705			  -0.14721			 -0.66346
	145.25			  9.41849			  -0.07183			 -0.68375
	145.50			  9.29235			  -0.10681			 -0.53502
	145.75			  9.37281			  -0.27720			 -0.29589
	146.00			  9.35737			  -0.34790			 -0.36477
	146.25			  9.33821			  -0.53325			 -0.42650
	146.50			  9.29635			  -0.41710			 -0.16354
	146.75			  9.37802			  -0.14403			 -0.02933
	147.00			  9.55895			  0.09126			 0.13442
	147.25			  9.70993			  0.10660			 0.05070
	147.50			  9.58807			  0.13409			 -0.09491
	147.75			  9.57486			  -0.00282			 0.13916
	148.00			  9.57514			  -0.06660			 0.19072
	148.25			  9.61923			  0.15186			 0.31690
	148.50			  9.70082			  0.26427			 0.10376
	148.75			  9.57542			  0.21976			 0.22844
	149.00			  9.59654			  -0.03181			 0.06985
	149.25			  9.42993			  0.16664			 0.23922
	149.50			  9.25030			  0.26184			 0.18299
	149.75			  9.37458			  0.13989			 0.26390
	150.00			  9.27598			  -0.08848			 0.32753
	150.25			  9.37319			  -0.04808			 0.18293
	150.50			  9.26258			  -0.12794			 0.24252
	150.75			  9.43328			  -0.09297			 0.06148
	151.00			  9.39281			  -0.15563			 -0.00862
	151.25			  9.35551			  -0.09895			 0.01365
	151.50			  9.41830			  -0.05406			 0.01939
	151.75			  9.50007			  0.00523			 0.04273
	152.00			  9.60007			  0.07518			 -0.00110
	152.25			  9.55328			  0.13802			 -0.18449
	152.50			  9.68854			  -0.01610			 -0.06418
	152.75			  9.62333			  0.14606			 -0.01638
	153.00			  9.64463			  0.27979			 0.13479
	153.25			  9.68510			  0.10211			 0.18217
	153.50			  9.62956			  -0.16909			 0.07633
	153.75			  9.83840			  -0.34491			 -0.03534
	154.00			  9.85245			  -0.24783			 -0.00801
	154.25			  9.70296			  -0.31704			 0.07917
	154.50			  9.80231			  -0.16947			 0.04438
	154.75			  9.97626			  -0.09933			 -0.01662
	155.00			  9.83440			  0.02337			 0.03485
	155.25			  9.74258			  0.05928			 0.19811
	155.50			  9.69291			  0.07462			 0.06237
	155.75			  9.63096			  0.00335			 0.06594
	156.00			  9.59542			  -0.05594			 0.16411
	156.25			  9.56156			  0.02711			 0.22267
	156.50			  9.68426			  0.06601			 0.01316
	156.75			  9.80035			  0.09014			 0.00045
	157.00			  9.77021			  -0.02657			 -0.03653
	157.25			  9.70872			  0.13521			 -0.00801
	157.50			  9.74240			  0.10398			 -0.03299
	157.75			  9.66528			  0.06508			 0.08738
	158.00			  9.52872			  0.12268			 0.05149
	158.25			  9.58900			  0.09500			 0.00021
	158.50			  9.70993			  0.21115			 0.21576
	158.75			  9.70770			  0.38696			 0.13119
	159.00			  9.60714			  0.11296			 0.12645
	159.25			  9.87589			  0.24444			 0.09530
	159.50			  9.86938			  0.44102			 0.20440
	159.75			  9.82017			  0.29532			 0.05901
	160.00			  10.00380			  0.34395			 0.00217
	160.25			  9.92873			  0.51172			 0.04914
	160.50			  9.92528			  0.54800			 -0.02108
	160.75			  9.81189			  0.47207			 -0.05462
	161.00			  9.60565			  0.37874			 -0.05037
	161.25			  9.70444			  0.21433			 -0.11729
	161.50			  9.48872			  0.09407			 -0.20410
	161.75			  9.46770			  0.13521			 -0.05443
	162.00			  9.39663			  0.05198			 -0.07377
	162.25			  9.44695			  0.10997			 -0.11048
	162.50			  9.44667			  0.06339			 -0.09222
	162.75			  9.49281			  0.07181			 -0.18446
	163.00			  9.45607			  0.21807			 -0.17887
	163.25			  9.57347			  0.19918			 0.01029
	163.50			  9.63561			  0.12493			 -0.05144
	163.75			  9.50128			  0.16739			 0.06854
	164.00			  9.50333			  0.27100			 0.05330
	164.25			  9.47867			  0.38940			 -0.20685
	164.50			  9.67877			  0.39912			 -0.16070
	164.75			  9.69003			  0.38135			 -0.22127
	165.00			  9.61849			  0.27194			 -0.30569
	165.25			  9.64472			  0.40548			 -0.17008
	165.50			  9.71096			  0.18628			 0.14090
	165.75			  9.66333			  -0.01928			 0.25059
	166.00			  9.64044			  -0.12233			 0.06967
	166.25			  9.71458			  -0.02732			 0.00681
	166.50			  9.71644			  0.04993			 -0.29002
	166.75			  9.70751			  0.07630			 -0.28324
	167.00			  9.79245			  -0.05706			 -0.42772
	167.25			  9.83403			  -0.10980			 -0.39806
	167.50			  9.82370			  -0.01890			 -0.32268