--------------TurbSim v2.00.* User Time Series Input File-----------------------
     Time series input from low-res turbsim run
--------------------------------------------------------------------------------
          3 nComp - Number of velocity components in the file
          1 nPoints - Number of time series points contained in this file (-)
          1 RefPtID - Index of the reference point (1-nPoints)
     Pointyi Pointzi ! nPoints listed in order of increasing height
       (m)     (m)
       -0.56486   94.00000
--------Time Series-------------------------------------------------------------
Elapsed Time         Point01u             Point01v           Point01w
         (s)            (m/s)                (m/s)              (m/s)
	0.00			  10.25841			  0.05711			 -0.98237
	0.25			  10.27436			  -0.12757			 -0.75482
	0.50			  10.27054			  0.27382			 -0.79776
	0.75			  10.32791			  -0.03125			 -0.62947
	1.00			  10.36388			  0.26405			 -0.60205
	1.25			  10.46717			  0.48803			 -0.54055
	1.50			  10.44237			  0.02372			 -0.35112
	1.75			  10.60697			  0.28836			 -0.37112
	2.00			  10.57740			  0.36536			 -0.34663
	2.25			  10.49919			  0.05938			 -0.38003
	2.50			  10.69459			  0.20022			 -0.60320
	2.75			  10.86696			  0.00577			 -0.79661
	3.00			  10.77730			  0.11436			 -0.57458
	3.25			  11.04614			  0.34992			 -0.56579
	3.50			  11.45234			  0.25883			 -0.41147
	3.75			  11.56284			  0.25156			 -0.22249
	4.00			  11.42304			  0.20772			 -0.47199
	4.25			  11.12763			  0.28813			 -0.49751
	4.50			  10.91928			  0.47894			 -0.39359
	4.75			  10.81395			  0.35378			 0.10886
	5.00			  10.68641			  0.15093			 -0.06742
	5.25			  10.74091			  0.25928			 -0.22226
	5.50			  10.65480			  0.66998			 -0.10248
	5.75			  10.69758			  0.63773			 -0.41434
	6.00			  10.21358			  0.42011			 -0.28560
	6.25			  10.09994			  0.32402			 -0.15438
	6.50			  10.14177			  0.22044			 -0.28427
	6.75			  9.76338			  0.21930			 -0.03615
	7.00			  9.42858			  0.03803			 0.18179
	7.25			  9.48676			  -0.07055			 0.29525
	7.50			  9.36168			  0.19250			 -0.03345
	7.75			  9.58119			  0.27200			 -0.14938
	8.00			  9.58310			  -0.25727			 -0.19277
	8.25			  9.36304			  -0.56484			 0.28231
	8.50			  9.30036			  -1.01348			 0.45267
	8.75			  9.35772			  -1.14523			 0.35347
	9.00			  9.81911			  -1.14500			 0.49928
	9.25			  10.18660			  -1.11025			 0.27220
	9.50			  10.32545			  -0.85288			 0.01023
	9.75			  10.57072			  -0.80313			 0.11196
	10.00			  10.50982			  -0.91376			 0.27921
	10.25			  10.29589			  -1.13569			 0.27990
	10.50			  10.24179			  -0.76883			 0.13340
	10.75			  10.08441			  -0.68751			 0.02684
	11.00			  10.02990			  -0.86719			 0.17254
	11.25			  10.12488			  -0.42219			 0.35732
	11.50			  9.82701			  -0.45763			 0.12880
	11.75			  9.97335			  -0.61232			 -0.03173
	12.00			  10.60465			  -0.80359			 0.04822
	12.25			  10.60261			  -0.22025			 0.17553
	12.50			  10.60302			  -0.05079			 0.09161
	12.75			  10.49442			  -0.09372			 0.42617
	13.00			  10.62019			  -0.26454			 0.70545
	13.25			  10.48651			  -0.06464			 0.39566
	13.50			  10.41361			  -0.02285			 0.34094
	13.75			  10.40857			  0.03780			 0.20444
	14.00			  10.34167			  0.00782			 0.15788
	14.25			  10.51690			  -0.19912			 0.19311
	14.50			  10.59253			  -0.04352			 0.08167
	14.75			  10.51595			  -0.16618			 -0.05524
	15.00			  10.39072			  0.02826			 -0.10047
	15.25			  10.02759			  -0.05806			 -0.34255
	15.50			  10.06942			  -0.19140			 -0.28519
	15.75			  10.12951			  -0.15392			 -0.28140
	16.00			  10.24288			  -0.13665			 -0.14530
	16.25			  10.50668			  0.22475			 0.15196
	16.50			  10.49455			  0.17592			 0.05609
	16.75			  10.26236			  0.18455			 0.13518
	17.00			  10.12787			  -0.20571			 0.30755
	17.25			  10.17434			  -0.30952			 0.10518
	17.50			  10.09762			  -0.32587			 -0.19381
	17.75			  9.76842			  -0.70250			 -0.20151
	18.00			  10.22285			  -0.67456			 -0.15725
	18.25			  10.25855			  -0.28476			 -0.61723
	18.50			  10.14300			  -0.25364			 -0.13610
	18.75			  9.98943			  0.08392			 0.18834
	19.00			  10.06996			  0.48121			 -0.14277
	19.25			  10.08454			  0.37718			 -0.14645
	19.50			  9.99965			  0.37263			 0.18168
	19.75			  10.09095			  0.37650			 -0.01207
	20.00			  10.31891			  0.36355			 0.19311
	20.25			  10.13878			  0.40489			 0.26588
	20.50			  10.18143			  0.34151			 0.10299
	20.75			  10.02772			  0.15116			 -0.16852
	21.00			  9.93711			  -0.02535			 -0.11995
	21.25			  10.10171			  -0.06760			 -0.29531
	21.50			  10.14041			  -0.31474			 -0.38152
	21.75			  9.81107			  -0.54190			 -0.32658
	22.00			  9.85889			  -0.51146			 -0.39342
	22.25			  9.81747			  -0.30498			 -0.28933
	22.50			  9.88928			  -0.05783			 0.08397
	22.75			  10.07896			  0.10618			 0.25708
	23.00			  9.99611			  0.20658			 0.09793
	23.25			  9.68135			  0.06529			 -0.00408
	23.50			  10.01641			  -0.01626			 -0.11685
	23.75			  10.20009			  0.02190			 0.08104
	24.00			  9.88996			  0.32516			 -0.22582
	24.25			  9.74880			  0.27200			 -0.30583
	24.50			  10.21835			  0.27291			 -0.26697
	24.75			  10.15213			  -0.16073			 -0.23881
	25.00			  10.27422			  0.06143			 -0.17340
	25.25			  10.44305			  -0.06351			 -0.46354
	25.50			  10.49564			  -0.31134			 -0.55377
	25.75			  10.07691			  -0.56666			 -0.22536
	26.00			  9.76828			  -0.57438			 0.18489
	26.25			  9.75929			  -0.27090			 -0.09380
	26.50			  10.13646			  -0.22275			 -0.29468
	26.75			  10.03930			  -0.46558			 -0.65464
	27.00			  9.92280			  -0.57938			 -0.59918
	27.25			  9.94951			  -0.84516			 -0.34807
	27.50			  10.11820			  -0.85038			 -0.08248
	27.75			  9.92880			  -1.00598			 0.01540
	28.00			  9.64592			  -0.96305			 -0.07328
	28.25			  9.79526			  -0.87105			 0.00247
	28.50			  10.12365			  -0.87469			 -0.17203
	28.75			  10.16535			  -0.65230			 -0.14622
	29.00			  10.04203			  -0.82676			 0.15679
	29.25			  9.90236			  -0.79836			 0.25024
	29.50			  9.97376			  -0.84152			 -0.08104
	29.75			  10.12787			  -0.54190			 0.15932
	30.00			  10.24629			  -0.49533			 0.18955
	30.25			  10.12202			  -0.30679			 0.33111
	30.50			  10.17884			  -0.23342			 0.23214
	30.75			  9.97840			  -0.42219			 0.08868
	31.00			  9.86080			  -0.29407			 0.28956
	31.25			  9.97622			  -0.35450			 0.06644
	31.50			  10.10185			  -0.45422			 0.03690
	31.75			  10.06615			  -0.27794			 -0.09018
	32.00			  10.06015			  -0.53781			 0.10115
	32.25			  10.28907			  -0.68115			 0.42623
	32.50			  10.25337			  -0.63753			 0.37583
	32.75			  10.07541			  -0.69887			 0.11173
	33.00			  10.08659			  -0.34655			 0.30209
	33.25			  10.28049			  -0.06737			 0.65274
	33.50			  9.98630			  -0.01399			 0.50917
	33.75			  10.10853			  -0.39857			 0.62354
	34.00			  9.99693			  -0.34950			 0.42709
	34.25			  10.04612			  -0.63208			 0.35525
	34.50			  10.04598			  -0.84425			 0.35209
	34.75			  10.19764			  -0.82199			 0.30071
	35.00			  10.07882			  -0.40379			 0.44491
	35.25			  9.95332			  -0.19980			 0.33726
	35.50			  9.86557			  -0.09054			 0.06661
	35.75			  9.87511			  0.18955			 0.25881
	36.00			  9.82033			  0.52778			 0.16007
	36.25			  9.98126			  0.27814			 0.39313
	36.50			  10.27313			  0.32516			 0.21426
	36.75			  10.48638			  0.30540			 0.13788
	37.00			  10.89898			  0.17660			 0.02414
	37.25			  11.17327			  0.15706			 0.27237
	37.50			  11.34128			  0.06302			 -0.30600
	37.75			  11.55767			  0.15524			 -0.49802
	38.00			  11.38475			  0.32743			 -0.31594
	38.25			  11.17545			  0.45509			 -0.34635
	38.50			  10.93304			  0.59366			 -0.36072
	38.75			  11.29182			  0.71746			 -0.85845
	39.00			  11.22233			  0.68702			 -0.31801
	39.25			  11.24399			  0.92667			 -0.37623
	39.50			  11.37112			  1.01731			 -0.61044
	39.75			  11.44511			  0.72268			 -0.17151
	40.00			  11.65332			  0.77766			 -0.15875
	40.25			  11.16319			  0.92008			 0.16415
	40.50			  11.01480			  0.48621			 0.09857
	40.75			  11.04001			  0.24474			 -0.01518
	41.00			  10.96248			  0.04485			 0.07730
	41.25			  10.92119			  -0.20866			 -0.06006
	41.50			  10.90838			  -0.33610			 -0.00236
	41.75			  10.79869			  -0.21525			 0.03167
	42.00			  10.94190			  0.23361			 -0.17547
	42.25			  10.73873			  -0.09304			 -0.18749
	42.50			  10.40885			  -0.05874			 -0.28565
	42.75			  10.37083			  -0.46785			 -0.35744
	43.00			  10.45204			  -0.59165			 -0.72016
	43.25			  10.37315			  -0.54463			 -0.59412
	43.50			  10.24697			  -0.10849			 -0.24237
	43.75			  10.28294			  -0.50101			 -0.12668
	44.00			  9.98303			  -0.65185			 -0.03374
	44.25			  9.99461			  -0.42196			 0.03351
	44.50			  9.92266			  -0.19162			 -0.06133
	44.75			  9.93684			  -0.03602			 -0.03294
	45.00			  9.99025			  -0.33224			 0.11087
	45.25			  10.27776			  -0.38380			 0.21271
	45.50			  10.17012			  -0.42015			 0.26611
	45.75			  10.04489			  -0.28226			 0.28346
	46.00			  9.96164			  -0.39516			 0.32289
	46.25			  9.86489			  -0.13597			 0.37341
	46.50			  9.54318			  -0.08395			 0.60343
	46.75			  9.63256			  -0.17868			 0.22214
	47.00			  9.55244			  -0.17436			 -0.24485
	47.25			  9.63951			  -0.00059			 -0.27071
	47.50			  9.65041			  -0.44014			 -0.32985
	47.75			  9.36876			  -0.47512			 0.01149
	48.00			  9.45147			  -0.06487			 0.00258
	48.25			  9.53391			  0.19522			 0.06885
	48.50			  9.35936			  0.30562			 0.12966
	48.75			  9.05046			  0.58957			 0.28691
	49.00			  8.96897			  0.50529			 0.12880
	49.25			  9.45583			  0.42329			 0.50509
	49.50			  9.80017			  0.40943			 0.46279
	49.75			  9.53105			  0.56685			 0.26203
	50.00			  9.31739			  0.57708			 0.30691
	50.25			  9.57820			  0.70224			 -0.23657
	50.50			  9.44371			  0.36923			 -0.55941
	50.75			  9.64060			  0.31403			 -0.54716
	51.00			  9.65995			  0.19568			 -0.47704
	51.25			  9.57629			  0.40739			 -0.38463
	51.50			  9.77918			  0.33311			 -0.41118
	51.75			  9.94242			  0.49575			 -0.47360
	52.00			  9.77659			  0.57594			 -0.62930
	52.25			  9.83873			  0.57344			 -1.04881
	52.50			  9.72127			  0.75199			 -0.87834
	52.75			  9.69456			  1.24901			 -0.75821
	53.00			  10.37287			  0.88601			 -0.57901
	53.25			  10.38023			  0.98142			 -0.46635
	53.50			  10.25037			  1.07182			 -0.51785
	53.75			  10.41825			  0.99709			 -0.31813
	54.00			  10.41661			  0.68338			 -0.38652
	54.25			  10.36906			  0.59661			 -0.36882
	54.50			  10.12052			  0.72836			 -0.13697
	54.75			  9.84936			  0.60229			 -0.41480
	55.00			  10.24669			  0.72654			 -0.57717
	55.25			  10.21549			  0.55527			 -0.52302
	55.50			  10.01750			  0.44351			 -0.34899
	55.75			  9.84050			  0.49416			 -0.41739
	56.00			  10.01532			  0.29426			 -0.60964
	56.25			  9.89541			  0.24134			 -0.04914
	56.50			  10.12937			  0.34765			 -0.13254
	56.75			  9.90699			  0.05257			 0.00408
	57.00			  9.92825			  0.06370			 0.18978
	57.25			  10.24887			  0.58593			 0.18099
	57.50			  10.31319			  0.63954			 0.10311
	57.75			  10.04585			  0.03258			 -0.33571
	58.00			  9.95182			  -0.21025			 -0.18151
	58.25			  10.09613			  -0.28453			 -0.31767
	58.50			  9.51184			  -0.28067			 -0.10656
	58.75			  9.85058			  0.14775			 -0.02023
	59.00			  9.73749			  0.41579			 0.00793
	59.25			  9.33742			  0.23134			 -0.36738
	59.50			  8.75872			  0.18500			 -0.05621
	59.75			  8.72697			  0.06325			 0.09868
	60.00			  8.96216			  0.04144			 -0.33399
	60.25			  9.11695			  -0.19344			 -0.61240
	60.50			  9.53146			  -0.10553			 -0.29249
	60.75			  9.28033			  0.31607			 -0.17030
	61.00			  9.55680			  0.52233			 -0.20720
	61.25			  9.61499			  0.33652			 -0.25536
	61.50			  9.91899			  0.01486			 -0.29238
	61.75			  10.03903			  -0.04897			 0.05471
	62.00			  10.28798			  0.11277			 0.24990
	62.25			  9.96477			  -0.08304			 0.30272
	62.50			  9.80766			  -0.17595			 0.59883
	62.75			  9.71718			  -0.12189			 0.32232
	63.00			  9.79349			  0.17864			 0.51469
	63.25			  9.78191			  -0.20162			 0.45376
	63.50			  9.65573			  -0.03693			 0.38692
	63.75			  9.62275			  -0.14051			 0.83896
	64.00			  9.47777			  -0.09963			 0.71895
	64.25			  9.65409			  -0.16823			 0.74309
	64.50			  9.74157			  0.10641			 0.33054
	64.75			  9.62125			  0.13276			 0.41462
	65.00			  9.39833			  -0.30861			 0.49290
	65.25			  9.50257			  -0.11098			 0.62768
	65.50			  9.40651			  -0.44695			 0.31151
	65.75			  9.15197			  -0.54054			 0.49526
	66.00			  9.16723			  -0.76293			 0.31462
	66.25			  9.11818			  -0.87696			 0.41617
	66.50			  9.35173			  -0.70477			 0.05483
	66.75			  9.36045			  -0.40992			 -0.10869
	67.00			  8.97279			  -0.16573			 -0.17501
	67.25			  8.99595			  -0.02557			 -0.26795
	67.50			  9.37776			  -0.31088			 -0.38020
	67.75			  9.79376			  -0.17550			 -0.43779
	68.00			  9.61553			  0.07097			 0.06719
	68.25			  9.61349			  -0.25636			 0.23875
	68.50			  9.64088			  -0.42287			 -0.00460
	68.75			  9.68148			  -0.11621			 -0.08058
	69.00			  9.82197			  -0.22025			 -0.21082
	69.25			  9.77973			  -0.14347			 -0.06259
	69.50			  9.61594			  -0.20843			 -0.04650
	69.75			  9.43526			  -0.17731			 -0.12036
	70.00			  9.64483			  -0.42991			 -0.29824
	70.25			  9.83737			  -0.22502			 -0.12949
	70.50			  9.95155			  -0.54849			 -0.18536
	70.75			  10.22489			  -0.49806			 0.02023
	71.00			  10.06479			  -0.48080			 0.07173
	71.25			  9.96681			  -0.27794			 0.39347
	71.50			  9.88001			  0.26110			 0.08167
	71.75			  10.07746			  0.15683			 0.15696
	72.00			  10.28744			  0.14366			 -0.08892
	72.25			  10.01055			  0.06597			 -0.10156
	72.50			  9.93506			  0.07120			 0.12173
	72.75			  9.93479			  -0.12961			 -0.09742
	73.00			  9.78681			  -0.36994			 0.24536
	73.25			  9.88547			  -0.30861			 0.01891
	73.50			  9.77005			  0.16683			 -0.19921
	73.75			  9.76160			  -0.12848			 0.12541
	74.00			  9.76283			  -0.37880			 0.29410
	74.25			  9.91790			  0.00055			 0.29088
	74.50			  9.93111			  0.05052			 -0.02949
	74.75			  9.66295			  -0.28431			 -0.18691
	75.00			  9.71991			  -0.14006			 0.09161
	75.25			  9.86707			  0.01850			 0.04305
	75.50			  9.81052			  -0.12461			 0.26956
	75.75			  9.74239			  -0.14574			 0.06650
	76.00			  9.90781			  0.14502			 0.25749
	76.25			  9.66772			  0.40375			 0.05012
	76.50			  10.06833			  0.45259			 -0.29991
	76.75			  10.18211			  0.52710			 -0.23668
	77.00			  10.23470			  0.33788			 -0.28709
	77.25			  10.37410			  -0.15528			 -0.23232
	77.50			  9.99393			  -0.36040			 -0.04380
	77.75			  9.88029			  -0.39198			 0.14874
	78.00			  10.11207			  -0.52600			 -0.11156
	78.25			  9.84227			  -0.46058			 -0.15283
	78.50			  9.74771			  -0.23797			 -0.14053
	78.75			  9.64210			  -0.32860			 0.03920
	79.00			  9.51211			  -0.45558			 0.19254
	79.25			  9.58964			  -0.46444			 0.14167
	79.50			  9.64592			  -0.00695			 0.16466
	79.75			  9.69811			  0.40103			 -0.00265
	80.00			  9.97608			  0.19750			 -0.03983
	80.25			  9.89582			  0.14389			 0.00350
	80.50			  9.96790			  0.05325			 0.24904
	80.75			  9.69538			  0.33788			 0.46497
	81.00			  9.88015			  0.14729			 0.50244
	81.25			  9.89092			  0.52642			 0.42428
	81.50			  10.00687			  0.40398			 0.19110
	81.75			  9.85522			  0.16842			 0.31916
	82.00			  9.82687			  0.12958			 0.41617
	82.25			  10.03631			  0.36150			 0.19340
	82.50			  10.16235			  0.11799			 0.48698
	82.75			  10.02241			  -0.15074			 0.36646
	83.00			  9.69811			  -0.02557			 0.16208
	83.25			  9.77659			  0.05825			 -0.09012
	83.50			  9.94964			  -0.06601			 -0.39342
	83.75			  10.27149			  -0.19958			 -0.33635
	84.00			  10.32436			  -0.35336			 -0.39790
	84.25			  10.22012			  0.08801			 -0.27646
	84.50			  9.92839			  0.11118			 -0.46066
	84.75			  9.61008			  -0.14324			 -0.03236
	85.00			  9.80807			  -0.11280			 -0.06593
	85.25			  9.89896			  -0.02080			 -0.21933
	85.50			  9.82224			  0.43397			 0.05178
	85.75			  10.32477			  0.40444			 -0.13472
	86.00			  10.73819			  0.32766			 -0.04966
	86.25			  10.67169			  0.67839			 -0.08851
	86.50			  10.51976			  0.71201			 0.24904
	86.75			  10.14750			  0.84467			 0.12903
	87.00			  10.30801			  0.29949			 -0.12921
	87.25			  10.16521			  0.41784			 -0.07334
	87.50			  10.43160			  0.47781			 -0.02627
	87.75			  10.50505			  0.18977			 -0.26134
	88.00			  10.31701			  0.02009			 -0.05075
	88.25			  10.42452			  -0.36790			 0.15593
	88.50			  10.72211			  -0.35200			 -0.01466
	88.75			  10.69581			  -0.27953			 -0.11455
	89.00			  10.42615			  -0.13870			 0.05885
	89.25			  10.57849			  -0.09713			 -0.13524
	89.50			  10.47153			  0.14616			 -0.59590
	89.75			  10.52358			  0.59729			 -0.48095
	90.00			  10.80169			  0.67521			 -0.35342
	90.25			  10.91846			  0.56027			 -0.15398
	90.50			  10.94572			  0.34537			 -0.09242
	90.75			  10.85742			  0.57367			 -0.18910
	91.00			  10.66788			  0.48031			 -0.33520
	91.25			  10.56187			  0.54459			 -0.59619
	91.50			  10.37342			  0.32061			 -0.96886
	91.75			  10.14368			  0.43874			 -0.75459
	92.00			  10.17407			  0.31766			 -0.67729
	92.25			  9.86653			  0.29858			 -0.59452
	92.50			  10.17243			  0.42670			 -0.29226
	92.75			  10.12038			  0.23793			 -0.09058
	93.00			  9.90059			  0.10300			 -0.38543
	93.25			  10.04257			  -0.17913			 -0.34083
	93.50			  9.87225			  0.04030			 -0.07558
	93.75			  9.76665			  0.20794			 -0.12311
	94.00			  9.88478			  0.35469			 -0.02242
	94.25			  9.89269			  0.52097			 -0.15070
	94.50			  9.95918			  -0.13620			 -0.18398
	94.75			  10.10880			  -0.29021			 -0.06075
	95.00			  9.86939			  0.32516			 -0.18703
	95.25			  10.18006			  0.46554			 -0.63677
	95.50			  10.15254			  0.48076			 -0.59234
	95.75			  9.92580			  -0.03148			 -0.60728
	96.00			  10.01887			  0.38354			 -0.27393
	96.25			  9.76583			  0.40989			 0.03897
	96.50			  9.78722			  0.00055			 -0.34842
	96.75			  9.64687			  0.06393			 -0.18013
	97.00			  9.79867			  0.13889			 0.14581
	97.25			  10.09994			  0.10050			 0.03782
	97.50			  10.57631			  0.08119			 0.31347
	97.75			  10.64703			  -0.12689			 0.20145
	98.00			  10.59988			  -0.02694			 0.09046
	98.25			  10.51745			  0.41398			 0.15851
	98.50			  10.29289			  0.25701			 0.38203
	98.75			  10.29534			  0.34697			 0.60452
	99.00			  10.19573			  0.66112			 0.98926
	99.25			  10.58217			  1.11975			 0.78470
	99.50			  10.56309			  1.21584			 0.49877
	99.75			  10.45340			  1.02435			 0.57193
	100.00			  10.25637			  0.81945			 0.71108
	100.25			  10.26032			  0.96074			 0.40054
	100.50			  10.55655			  1.28603			 0.31674
	100.75			  10.25119			  1.19335			 0.26478
	101.00			  10.38405			  1.11635			 0.36025
	101.25			  10.27940			  1.27399			 0.31594
	101.50			  10.03835			  1.23174			 0.13081
	101.75			  10.07242			  1.35100			 0.40393
	102.00			  9.96600			  1.02458			 0.59538
	102.25			  10.28389			  1.00981			 0.51204
	102.50			  10.67633			  1.18699			 0.55710
	102.75			  10.93822			  1.24015			 0.55101
	103.00			  10.83058			  1.14133			 -0.14013
	103.25			  10.95812			  1.12339			 0.01144
	103.50			  10.95975			  1.22516			 0.28249
	103.75			  10.79215			  0.96256			 0.19875
	104.00			  10.64676			  0.68906			 0.14029
	104.25			  10.74786			  0.67294			 0.36485
	104.50			  10.99927			  0.47781			 0.26266
	104.75			  10.86559			  0.69315			 0.40181
	105.00			  10.59920			  0.71814			 0.39341
	105.25			  10.62100			  0.51915			 0.52313
	105.50			  10.76667			  0.81037			 0.14432
	105.75			  10.90007			  0.56890			 0.34617
	106.00			  10.83494			  0.58548			 0.38698
	106.25			  10.69499			  0.61955			 0.64625
	106.50			  10.91860			  0.57912			 0.59498
	106.75			  11.29291			  0.41602			 0.39939
	107.00			  11.53164			  0.61637			 0.28312
	107.25			  11.58655			  0.24861			 0.45554
	107.50			  11.24794			  0.13366			 0.68930
	107.75			  10.98918			  0.31516			 0.96201
	108.00			  10.59035			  0.27609			 0.93874
	108.25			  10.74051			  0.26882			 0.66550
	108.50			  10.67428			  0.49280			 0.73568
	108.75			  10.71789			  0.36536			 0.69970
	109.00			  10.61651			  0.40126			 0.44675
	109.25			  10.66243			  0.19818			 0.37634
	109.50			  10.52739			  0.64999			 0.55250
	109.75			  10.20800			  0.72041			 0.39956
	110.00			  10.36579			  0.35651			 0.38433
	110.25			  10.17175			  0.28336			 0.50009
	110.50			  10.37342			  0.54209			 0.52043
	110.75			  10.45531			  0.67566			 0.31548
	111.00			  10.52889			  0.63137			 0.06282
	111.25			  10.94422			  0.77129			 -0.29209
	111.50			  10.75440			  0.71496			 -0.34606
	111.75			  10.47302			  0.67816			 -0.25479
	112.00			  10.29193			  0.66385			 -0.34962
	112.25			  10.17884			  0.41352			 -0.25548
	112.50			  10.10076			  0.19363			 0.13748
	112.75			  10.06451			  0.16910			 0.20679
	113.00			  10.08918			  0.01441			 0.51785
	113.25			  9.93002			  -0.08895			 0.14150
	113.50			  9.85617			  0.23225			 0.12587
	113.75			  9.92784			  0.58503			 0.15903
	114.00			  9.98780			  0.72155			 0.29289
	114.25			  9.92607			  0.71360			 0.27760
	114.50			  9.81883			  0.50120			 0.16972
	114.75			  9.71623			  0.52756			 0.47457
	115.00			  9.83995			  0.63000			 0.30076
	115.25			  10.21113			  0.79606			 0.05891
	115.50			  10.33731			  0.74449			 -0.04466
	115.75			  10.03385			  0.69883			 0.01603
	116.00			  10.31919			  0.76766			 0.56544
	116.25			  10.28730			  1.00459			 0.29542
	116.50			  10.59212			  0.71314			 0.19627
	116.75			  10.59294			  0.49575			 -0.00759
	117.00			  10.43760			  0.52165			 -0.07093
	117.25			  10.32014			  0.64522			 -0.35819
	117.50			  10.04230			  0.45782			 -0.43405
	117.75			  10.21522			  0.65340			 -0.56579
	118.00			  10.19628			  0.82808			 -1.07749
	118.25			  10.10294			  0.72791			 -0.76275
	118.50			  9.91435			  0.96529			 -0.77333
	118.75			  9.90931			  0.81673			 -0.28255
	119.00			  9.92566			  0.73722			 0.15840
	119.25			  9.96150			  1.11021			 -0.02989
	119.50			  10.25582			  0.77652			 -0.31134
	119.75			  10.32464			  0.65681			 -0.09863
	120.00			  10.38773			  0.52801			 0.19432
	120.25			  10.40680			  0.59638			 -0.06374
	120.50			  10.41975			  0.75449			 0.05609
	120.75			  10.26645			  0.68702			 -0.00598
	121.00			  10.48992			  1.06137			 -0.23967
	121.25			  10.25978			  1.41347			 -0.29588
	121.50			  10.18619			  1.72172			 -0.36043
	121.75			  10.16426			  1.62859			 -0.37813
	122.00			  10.12338			  1.93729			 -0.10961
	122.25			  10.24901			  1.64835			 -0.26927
	122.50			  10.17870			  1.54885			 -0.37974
	122.75			  10.40408			  1.34737			 -0.62614
	123.00			  10.35502			  1.11158			 -0.58245
	123.25			  10.55247			  0.92076			 -0.43733
	123.50			  10.68505			  0.86307			 -0.51848
	123.75			  10.23375			  0.67839			 -0.44331
	124.00			  9.94174			  0.57753			 -0.59866
	124.25			  10.06029			  0.55686			 -0.46256
	124.50			  10.28526			  0.47304			 -0.56073
	124.75			  10.40094			  -0.03284			 -0.43348
	125.00			  10.21535			  -0.15233			 -0.24697
	125.25			  10.21658			  -0.10281			 -0.09432
	125.50			  9.82742			  0.10936			 -0.12317
	125.75			  9.88778			  -0.05056			 -0.47952
	126.00			  9.90754			  0.22339			 -0.44618
	126.25			  10.02650			  0.20249			 -0.48756
	126.50			  10.11166			  0.27268			 -0.13903
	126.75			  9.62630			  0.50325			 -0.32508
	127.00			  9.67017			  0.39808			 -0.20312
	127.25			  9.58760			  -0.02716			 -0.13639
	127.50			  9.60572			  -0.15346			 -0.07805
	127.75			  9.38947			  -0.10576			 -0.11375
	128.00			  9.46578			  0.35423			 -0.04012
	128.25			  9.40337			  0.30630			 -0.14829
	128.50			  9.93030			  0.21340			 0.09489
	128.75			  9.92171			  0.51779			 -0.14001
	129.00			  9.68448			  0.15116			 -0.45365
	129.25			  9.73353			  0.16274			 -0.17840
	129.50			  9.98044			  0.39012			 -0.23237
	129.75			  9.95414			  0.21930			 -0.45796
	130.00			  10.08482			  0.17387			 -0.44342
	130.25			  9.67658			  0.32629			 -0.26019
	130.50			  9.58392			  0.57140			 -0.00328
	130.75			  9.53255			  0.32425			 0.15788
	131.00			  9.36685			  0.55209			 0.12380
	131.25			  9.28810			  0.35037			 0.11334
	131.50			  9.14897			  0.30040			 0.17719
	131.75			  9.43512			  0.15979			 0.01965
	132.00			  9.08616			  0.27178			 0.09035
	132.25			  9.36290			  0.29267			 0.12880
	132.50			  9.39084			  0.52733			 -0.28071
	132.75			  9.27052			  0.25088			 -0.24013
	133.00			  9.29218			  0.51529			 -0.31801
	133.25			  9.20171			  0.48326			 -0.02230
	133.50			  8.73664			  1.11726			 0.33755
	133.75			  8.66443			  1.02889			 0.20196
	134.00			  8.99513			  0.98664			 0.10374
	134.25			  9.00440			  0.99618			 0.36537
	134.50			  8.85846			  0.60297			 0.42140
	134.75			  9.08616			  0.39353			 0.46440
	135.00			  9.25253			  0.19136			 0.20415
	135.25			  9.15251			  0.15184			 0.14104
	135.50			  9.31112			  0.27541			 -0.39555
	135.75			  9.33647			  0.02372			 -0.17662
	136.00			  9.42408			  -0.13870			 -0.28347
	136.25			  9.50080			  -0.05783			 -0.01702
	136.50			  9.63992			  0.01463			 -0.02558
	136.75			  9.68039			  -0.01058			 0.11753
	137.00			  9.49058			  0.15093			 0.33853
	137.25			  9.53500			  0.59002			 0.44853
	137.50			  9.60395			  0.57003			 0.29628
	137.75			  9.40501			  0.63659			 0.08018
	138.00			  9.32761			  0.42965			 -0.24214
	138.25			  9.37748			  0.34174			 -0.25059
	138.50			  9.37830			  0.68225			 -0.07581
	138.75			  9.25785			  0.89373			 0.04339
	139.00			  9.46851			  0.71973			 -0.05960
	139.25			  9.35827			  0.61683			 -0.03587
	139.50			  9.53268			  0.48553			 -0.24985
	139.75			  9.59686			  0.20249			 -0.44607
	140.00			  9.69034			  0.00532			 0.05684
	140.25			  9.56280			  -0.17868			 0.04713
	140.50			  9.46033			  -0.57961			 -0.06960
	140.75			  9.68325			  -0.35109			 0.09339
	141.00			  9.67031			  -0.25568			 -0.28399
	141.25			  9.41959			  -0.28294			 -0.07581
	141.50			  9.36849			  -0.41833			 0.14903
	141.75			  9.37462			  -0.61891			 0.13782
	142.00			  9.23536			  -0.25318			 0.24513
	142.25			  9.51606			  0.14502			 0.22392
	142.50			  9.82360			  -0.07214			 -0.20427
	142.75			  9.63338			  0.26610			 -0.41980
	143.00			  9.91994			  -0.17459			 -0.28766
	143.25			  10.11329			  -0.04806			 -0.04552
	143.50			  10.10662			  0.09845			 -0.31749
	143.75			  10.02268			  0.07460			 -0.00414
	144.00			  10.14845			  -0.02535			 0.03328
	144.25			  9.97472			  -0.09168			 0.00649
	144.50			  9.95414			  -0.18504			 0.20271
	144.75			  9.95632			  -0.21207			 0.32151
	145.00			  9.95319			  -0.11984			 0.66320
	145.25			  9.66063			  0.09732			 0.88758
	145.50			  9.55476			  0.04121			 0.88201
	145.75			  9.50121			  0.08233			 0.70912
	146.00			  9.54958			  -0.04693			 0.52308
	146.25			  9.73026			  -0.45195			 0.65906
	146.50			  9.74035			  -1.04801			 0.54239
	146.75			  9.64510			  -1.26585			 0.07949
	147.00			  9.67276			  -1.15205			 0.04259
	147.25			  9.85617			  -1.29720			 -0.22898
	147.50			  9.70533			  -0.98122			 0.36514
	147.75			  9.57888			  -1.13637			 0.30370
	148.00			  9.86475			  -0.90126			 0.30462
	148.25			  9.95264			  -1.12774			 -0.10369
	148.50			  10.03617			  -0.79018			 -0.12852
	148.75			  9.97921			  -0.52873			 -0.03943
	149.00			  10.02881			  -0.20775			 -0.24973
	149.25			  10.12760			  -0.25727			 0.00517
	149.50			  10.25732			  -0.29589			 0.10535
	149.75			  10.02009			  -0.55985			 0.04678
	150.00			  10.12365			  -0.31384			 0.21426
	150.25			  10.08836			  -0.72272			 0.12047
	150.50			  10.24860			  -0.77565			 -0.20306
	150.75			  10.51322			  -0.53645			 0.07690
	151.00			  10.24956			  -0.44763			 -0.12248
	151.25			  10.37274			  0.02213			 -0.18616
	151.50			  10.36279			  -0.20207			 0.02184
	151.75			  10.56200			  -0.11189			 0.04086
	152.00			  10.44482			  -0.35790			 -0.25720
	152.25			  10.49551			  -0.52691			 -0.32606
	152.50			  10.56459			  -0.58370			 -0.63160
	152.75			  10.34112			  -0.65185			 -0.55504
	153.00			  10.24983			  -0.43287			 -0.59355
	153.25			  10.34903			  -0.36994			 -0.27238
	153.50			  10.01014			  -0.31724			 -0.40830
	153.75			  10.21236			  -0.14619			 -0.51963
	154.00			  10.32368			  0.20567			 -0.28778
	154.25			  10.53829			  -0.38857			 0.06713
	154.50			  10.61964			  -0.49329			 0.08782
	154.75			  10.59552			  0.07824			 -0.16547
	155.00			  10.56364			  0.05348			 -0.16289
	155.25			  10.56268			  -0.17459			 0.09581
	155.50			  10.81804			  -0.10440			 0.35531
	155.75			  10.63872			  -0.12030			 0.25145
	156.00			  10.39290			  -0.38017			 -0.20668
	156.25			  10.24765			  -0.83062			 -0.20835
	156.50			  10.43637			  -0.69046			 0.12265
	156.75			  10.39549			  -0.39902			 0.17800
	157.00			  10.44032			  -0.62277			 0.37462
	157.25			  10.67469			  -0.65207			 0.56009
	157.50			  10.41934			  -0.60414			 0.41876
	157.75			  10.67496			  -0.12825			 -0.07823
	158.00			  10.71066			  -0.30361			 0.37841
	158.25			  10.68300			  0.15252			 0.45836
	158.50			  10.75849			  0.16524			 0.50451
	158.75			  11.11414			  0.19750			 0.05879
	159.00			  10.99777			  0.20817			 0.31645
	159.25			  11.26116			  0.19341			 0.40928
	159.50			  11.12585			  -0.12143			 0.50020
	159.75			  11.04560			  -0.03966			 0.52423
	160.00			  10.97801			  0.08210			 0.37106
	160.25			  11.15406			  0.00350			 0.28513
	160.50			  10.99777			  -0.05374			 0.24179
	160.75			  10.63082			  -0.02398			 0.22128
	161.00			  10.57372			  0.03053			 0.09477
	161.25			  10.59294			  -0.10508			 0.14265
	161.50			  10.51431			  0.02894			 0.24415
	161.75			  10.39440			  0.03122			 0.26674
	162.00			  10.18497			  -0.56348			 0.20110
	162.25			  9.93956			  -0.59733			 -0.03581
	162.50			  10.07323			  -0.21843			 0.12886
	162.75			  9.94310			  0.21771			 0.12822
	163.00			  9.85304			  0.15161			 0.05736
	163.25			  10.37178			  0.15842			 0.05943
	163.50			  9.96749			  0.11072			 -0.01087
	163.75			  9.84718			  0.15956			 0.19035
	164.00			  9.72863			  0.26246			 0.15357
	164.25			  9.69647			  0.26791			 0.44577
	164.50			  9.59073			  0.11254			 0.11432
	164.75			  9.55353			  0.44873			 0.27398
	165.00			  9.47355			  0.15275			 -0.03592
	165.25			  9.56975			  0.36650			 -0.03932
	165.50			  9.61294			  0.57549			 -0.09851
	165.75			  9.97526			  0.87215			 0.00701
	166.00			  9.73067			  0.97824			 0.13041
	166.25			  9.66813			  0.96824			 -0.10076
	166.50			  9.35078			  0.87306			 -0.01937