--------------TurbSim v2.00.* User Time Series Input File-----------------------
     Time series input from low-res turbsim run
--------------------------------------------------------------------------------
          3 nComp - Number of velocity components in the file
          1 nPoints - Number of time series points contained in this file (-)
          1 RefPtID - Index of the reference point (1-nPoints)
     Pointyi Pointzi ! nPoints listed in order of increasing height
       (m)     (m)
       -2.85422   94.00000
--------Time Series-------------------------------------------------------------
Elapsed Time         Point01u             Point01v           Point01w
         (s)            (m/s)                (m/s)              (m/s)
	0.00			  10.32901			  0.44404			 0.27594
	0.25			  10.45030			  0.36356			 0.16410
	0.50			  10.11448			  0.37731			 -0.01004
	0.75			  10.03279			  0.31113			 -0.05860
	1.00			  9.97819			  0.30985			 -0.09006
	1.25			  9.86084			  0.23376			 -0.09050
	1.50			  9.96166			  0.27465			 -0.32311
	1.75			  10.04182			  0.40206			 -0.46454
	2.00			  10.05374			  0.46549			 -0.43379
	2.25			  10.17013			  0.28986			 -0.45423
	2.50			  10.24058			  0.21983			 -0.43074
	2.75			  10.25981			  0.16208			 -0.24340
	3.00			  10.26836			  0.11533			 -0.19282
	3.25			  10.19810			  0.18683			 -0.12386
	3.50			  10.26038			  0.00002			 -0.19910
	3.75			  10.30133			  0.03375			 -0.36101
	4.00			  10.33141			  0.09040			 -0.38990
	4.25			  10.22501			  -0.07350			 -0.17344
	4.50			  10.22357			  -0.23703			 -0.24113
	4.75			  10.18445			  -0.37434			 -0.17878
	5.00			  10.11640			  -0.29863			 -0.24743
	5.25			  10.08757			  -0.02583			 -0.26402
	5.50			  10.22943			  0.09297			 -0.34190
	5.75			  10.13563			  0.07152			 -0.37912
	6.00			  10.05355			  0.24641			 -0.16493
	6.25			  10.08757			  0.06913			 0.07054
	6.50			  9.92091			  -0.10301			 -0.08540
	6.75			  9.92004			  -0.00273			 -0.09777
	7.00			  10.05547			  -0.01538			 -0.10351
	7.25			  10.20320			  0.16502			 -0.27173
	7.50			  10.32363			  0.07720			 -0.01619
	7.75			  10.27643			  -0.09458			 -0.17962
	8.00			  10.15889			  0.00515			 -0.21059
	8.25			  10.12025			  0.09407			 -0.24458
	8.50			  10.27038			  0.20571			 -0.28583
	8.75			  10.15187			  0.21983			 -0.21827
	9.00			  10.22396			  0.18940			 -0.24927
	9.25			  10.21021			  0.15768			 -0.20836
	9.50			  10.24943			  0.31113			 -0.39828
	9.75			  10.23972			  0.53956			 -0.26645
	10.00			  10.19445			  0.30545			 -0.00709
	10.25			  10.08574			  0.10195			 -0.00656
	10.50			  10.05893			  0.11350			 -0.08839
	10.75			  10.01404			  -0.02656			 -0.18524
	11.00			  9.93417			  0.21195			 -0.26750
	11.25			  9.98088			  0.27025			 -0.25977
	11.50			  9.96349			  0.23010			 -0.19568
	11.75			  9.92360			  0.38959			 -0.09345
	12.00			  9.95157			  0.47686			 -0.00218
	12.25			  9.92062			  0.49776			 -0.08186
	12.50			  9.98752			  0.52068			 -0.25557
	12.75			  9.99694			  0.56834			 -0.10892
	13.00			  9.89755			  0.61032			 0.00350
	13.25			  9.85401			  0.65689			 0.08756
	13.50			  9.95003			  0.55111			 -0.11001
	13.75			  10.09036			  0.62792			 -0.12597
	14.00			  9.87872			  0.60336			 -0.00951
	14.25			  10.00770			  0.51371			 -0.12464
	14.50			  9.88064			  0.45944			 -0.13172
	14.75			  9.89160			  0.26915			 -0.22227
	15.00			  9.86632			  0.35403			 -0.27977
	15.25			  9.80702			  0.40628			 -0.21827
	15.50			  10.00472			  0.49923			 -0.24933
	15.75			  9.92773			  0.42479			 -0.24135
	16.00			  9.89313			  0.24550			 -0.30003
	16.25			  10.10381			  0.30746			 -0.22793
	16.50			  9.99453			  0.40243			 -0.12318
	16.75			  10.06643			  0.36998			 0.08992
	17.00			  10.11717			  0.32268			 0.11338
	17.25			  10.08546			  0.41343			 0.14609
	17.50			  9.94225			  0.29610			 0.08166
	17.75			  9.86949			  0.23945			 0.10555
	18.00			  9.73522			  0.41141			 -0.02477
	18.25			  9.56616			  0.42516			 -0.00327
	18.50			  9.50916			  0.61289			 0.11968
	18.75			  9.59855			  0.57109			 0.32831
	19.00			  9.84508			  0.57421			 0.01966
	19.25			  9.86661			  0.55368			 -0.09559
	19.50			  9.87929			  0.45706			 -0.17689
	19.75			  9.92274			  0.19288			 -0.20982
	20.00			  10.01193			  0.25283			 -0.26169
	20.25			  9.94465			  0.35770			 -0.24265
	20.50			  9.97839			  0.35128			 -0.17860
	20.75			  9.93254			  0.18225			 -0.38216
	21.00			  9.94676			  0.17198			 -0.41587
	21.25			  9.86401			  0.40866			 -0.22411
	21.50			  9.81519			  0.16337			 -0.20028
	21.75			  9.93494			  0.12945			 -0.15412
	22.00			  10.15869			  0.22735			 0.00117
	22.25			  10.06969			  0.12835			 0.10449
	22.50			  9.85180			  0.24641			 -0.05114
	22.75			  9.79596			  0.05960			 -0.01784
	23.00			  10.02644			  0.05447			 0.17007
	23.25			  9.89006			  -0.00566			 0.25239
	23.50			  10.01625			  -0.18239			 0.19790
	23.75			  9.91380			  -0.13546			 0.20141
	24.00			  10.06402			  -0.13858			 0.09424
	24.25			  10.07344			  -0.16993			 -0.07310
	24.50			  10.16984			  -0.14463			 -0.02343
	24.75			  10.29085			  -0.10668			 -0.02067
	25.00			  10.31228			  -0.08798			 0.01307
	25.25			  10.36053			  -0.04160			 0.04646
	25.50			  10.35284			  0.03063			 -0.06655
	25.75			  10.26653			  -0.08138			 0.04656
	26.00			  10.18532			  -0.17744			 0.00602
	26.25			  10.11785			  -0.06066			 -0.05285
	26.50			  10.27922			  0.20700			 -0.23044
	26.75			  10.16388			  0.07280			 -0.25433
	27.00			  10.28835			  0.16263			 -0.29102
	27.25			  10.19310			  -0.18478			 -0.23694
	27.50			  10.23164			  -0.08340			 -0.30366
	27.75			  10.18445			  -0.02565			 -0.49645
	28.00			  10.01847			  -0.03078			 -0.30015
	28.25			  10.06143			  -0.09036			 -0.40655
	28.50			  10.28739			  0.07555			 -0.29944
	28.75			  10.48000			  -0.13785			 -0.06742
	29.00			  10.35899			  0.02862			 -0.09441
	29.25			  10.31844			  -0.03683			 -0.16306
	29.50			  10.13774			  -0.00585			 -0.11756
	29.75			  9.98175			  0.09150			 -0.24141
	30.00			  9.92379			  0.31461			 -0.04496
	30.25			  10.06114			  0.20058			 -0.08767
	30.50			  10.06671			  0.14815			 -0.07481
	30.75			  9.98463			  -0.10558			 -0.21382
	31.00			  10.07998			  -0.20971			 -0.27030
	31.25			  10.09315			  -0.16938			 -0.03300
	31.50			  10.16014			  -0.14976			 0.20126
	31.75			  10.19262			  -0.00420			 0.21899
	32.00			  10.41272			  0.07885			 0.17811
	32.25			  10.63513			  0.12542			 0.10549
	32.50			  10.63561			  0.22845			 0.06299
	32.75			  10.48067			  0.18555			 0.01127
	33.00			  10.47827			  0.38428			 0.00453
	33.25			  10.35871			  0.39766			 -0.07900
	33.50			  10.27547			  0.37163			 -0.20773
	33.75			  10.24991			  0.38519			 -0.24939
	34.00			  10.30335			  0.44991			 -0.16139
	34.25			  10.26413			  0.30545			 -0.02964
	34.50			  10.15283			  0.25961			 -0.15688
	34.75			  10.16167			  0.05575			 -0.01685
	35.00			  10.26615			  0.08655			 0.08048
	35.25			  10.19406			  0.16832			 0.10617
	35.50			  10.24750			  0.10268			 0.07731
	35.75			  10.19599			  0.12468			 -0.06329
	36.00			  10.33574			  0.07903			 -0.04384
	36.25			  10.28297			  0.06657			 -0.02871
	36.50			  10.34218			  0.06968			 0.13301
	36.75			  10.29354			  -0.12190			 0.20107
	37.00			  10.22972			  -0.20329			 0.10328
	37.25			  10.23587			  -0.26288			 0.17230
	37.50			  10.33929			  -0.38607			 0.15183
	37.75			  10.40811			  -0.37947			 0.23260
	38.00			  10.22463			  -0.37837			 0.14578
	38.25			  10.20781			  -0.50982			 -0.10125
	38.50			  10.21684			  -0.46674			 -0.24529
	38.75			  10.12102			  -0.50616			 -0.19208
	39.00			  10.08863			  -0.31806			 -0.11286
	39.25			  10.19599			  -0.25004			 -0.25495
	39.50			  10.11958			  -0.22291			 -0.12725
	39.75			  10.23232			  -0.48397			 -0.24445
	40.00			  10.34554			  -0.57270			 -0.23923
	40.25			  10.39936			  -0.66987			 -0.27387
	40.50			  10.34515			  -0.59049			 -0.27462
	40.75			  10.21434			  -0.80920			 -0.28797
	41.00			  10.39119			  -0.73880			 -0.24228
	41.25			  10.52556			  -0.65264			 -0.18795
	41.50			  10.44963			  -0.66840			 -0.14881
	41.75			  10.62456			  -0.70764			 -0.15601
	42.00			  10.61523			  -0.60442			 -0.20864
	42.25			  10.54642			  -0.72413			 -0.16431
	42.50			  10.62946			  -0.88602			 -0.20438
	42.75			  10.57592			  -1.03011			 -0.02893
	43.00			  10.55362			  -0.86585			 -0.02728
	43.25			  10.61735			  -0.79233			 -0.14213
	43.50			  10.43281			  -0.77602			 -0.22296
	43.75			  10.49009			  -0.77877			 0.05153
	44.00			  10.43406			  -0.83303			 0.13938
	44.25			  10.48740			  -0.90911			 0.18467
	44.50			  10.49105			  -0.78372			 0.40873
	44.75			  10.34314			  -0.62312			 0.16886
	45.00			  10.41378			  -0.67335			 0.04174
	45.25			  10.39504			  -0.56720			 0.05731
	45.50			  10.31334			  -0.52779			 0.08051
	45.75			  10.34679			  -0.56060			 0.05460
	46.00			  10.45050			  -0.76868			 0.04270
	46.25			  10.54738			  -0.85265			 0.13549
	46.50			  10.42589			  -1.01325			 0.10083
	46.75			  10.29460			  -0.93203			 0.02021
	47.00			  10.14149			  -0.80003			 -0.04108
	47.25			  10.23780			  -0.89335			 -0.05794
	47.50			  10.27663			  -0.86677			 -0.10156
	47.75			  10.10420			  -0.70617			 -0.09652
	48.00			  10.18916			  -0.66602			 -0.10426
	48.25			  10.20762			  -0.68069			 -0.29018
	48.50			  10.16552			  -0.65667			 -0.15903
	48.75			  10.07748			  -0.72597			 -0.26788
	49.00			  10.04374			  -0.77602			 -0.22634
	49.25			  10.12217			  -0.61377			 -0.20826
	49.50			  10.03634			  -0.60167			 -0.23917
	49.75			  10.14159			  -0.52046			 -0.31764
	50.00			  10.11650			  -0.56079			 -0.11849
	50.25			  10.06969			  -0.57014			 -0.25952
	50.50			  10.18935			  -0.48746			 -0.20292
	50.75			  10.10016			  -0.53732			 0.01528
	51.00			  10.15418			  -0.64512			 -0.02744
	51.25			  10.15360			  -0.52852			 0.05939
	51.50			  9.95138			  -0.48416			 0.11978
	51.75			  9.96455			  -0.49369			 -0.19584
	52.00			  9.94244			  -0.44456			 -0.21566
	52.25			  10.01001			  -0.38644			 -0.14626
	52.50			  9.88842			  -0.22878			 -0.03232
	52.75			  9.88583			  -0.26398			 -0.10817
	53.00			  9.83460			  -0.17213			 -0.00895
	53.25			  9.75675			  -0.08120			 -0.11311
	53.50			  9.70783			  -0.17414			 -0.15819
	53.75			  9.72292			  -0.18863			 -0.00908
	54.00			  9.66102			  -0.15966			 0.05817
	54.25			  9.51743			  -0.14958			 -0.02759
	54.50			  9.63180			  -0.22804			 0.23975
	54.75			  9.60614			  -0.13051			 0.17724
	55.00			  9.53972			  -0.02106			 0.30281
	55.25			  9.51156			  0.04768			 0.38898
	55.50			  9.48263			  0.01890			 0.42250
	55.75			  9.61613			  -0.17469			 0.30470
	56.00			  9.75223			  -0.25774			 0.19268
	56.25			  9.85642			  -0.33419			 0.24875
	56.50			  10.01126			  -0.47866			 0.13481
	56.75			  9.96599			  -0.26288			 0.09722
	57.00			  10.16042			  -0.23208			 -0.10684
	57.25			  10.12880			  -0.55107			 0.07383
	57.50			  10.09218			  -0.52247			 0.17513
	57.75			  10.22319			  -0.44181			 0.09138
	58.00			  10.08584			  -0.33511			 0.08936
	58.25			  10.09257			  -0.34189			 0.27261
	58.50			  10.06047			  -0.41614			 0.29271
	58.75			  10.14735			  -0.41816			 0.18150
	59.00			  10.26298			  -0.51477			 0.36537
	59.25			  10.26230			  -0.22896			 0.44061
	59.50			  10.02894			  -0.15526			 0.23732
	59.75			  9.96618			  -0.04691			 0.00214
	60.00			  9.97569			  -0.19339			 0.18871
	60.25			  9.90784			  -0.25903			 0.12931
	60.50			  10.07440			  -0.19339			 0.19355
	60.75			  10.25702			  -0.12336			 0.50364
	61.00			  10.36188			  -0.07460			 0.51749
	61.25			  10.45943			  -0.18056			 0.50892
	61.50			  10.37245			  -0.31293			 0.14627
	61.75			  10.37735			  -0.37379			 0.31219
	62.00			  10.16821			  -0.31513			 0.13789
	62.25			  10.13803			  -0.51826			 0.05470
	62.50			  10.05326			  -0.51496			 0.14196
	62.75			  10.24318			  -0.40642			 0.31893
	63.00			  10.28633			  -0.33768			 0.26544
	63.25			  10.14351			  -0.25866			 0.31654
	63.50			  10.08815			  -0.16131			 0.42194
	63.75			  10.25221			  -0.36957			 0.20958
	64.00			  10.31219			  -0.11273			 0.18274
	64.25			  10.42618			  -0.05828			 0.22747
	64.50			  10.34640			  -0.04123			 0.33561
	64.75			  10.35236			  -0.07350			 0.39438
	65.00			  10.37591			  -0.08743			 0.28305
	65.25			  10.42877			  -0.07845			 0.25161
	65.50			  10.33218			  -0.11511			 0.37338
	65.75			  10.33920			  -0.21851			 0.41498
	66.00			  10.38639			  -0.15398			 0.28165
	66.25			  10.29892			  -0.09311			 0.28920
	66.50			  10.19003			  -0.26636			 0.33750
	66.75			  10.02750			  -0.20641			 0.17867
	67.00			  10.15533			  -0.11218			 0.39184
	67.25			  10.16802			  0.04897			 0.24192
	67.50			  10.39110			  0.07408			 0.21216
	67.75			  10.30556			  0.07390			 0.29464
	68.00			  10.20243			  -0.02675			 0.33284
	68.25			  10.08238			  -0.01685			 0.34822
	68.50			  10.08084			  -0.09733			 0.31200
	68.75			  10.22155			  -0.14463			 0.23934
	69.00			  10.24654			  0.19032			 0.20604
	69.25			  10.13457			  0.12138			 0.10285
	69.50			  10.12265			  0.29298			 0.01761
	69.75			  10.13986			  0.26511			 0.11664
	70.00			  10.20281			  -0.00585			 0.06342
	70.25			  10.18128			  -0.06928			 0.11490
	70.50			  10.26923			  0.10800			 0.16752
	70.75			  10.20762			  0.28693			 0.30051
	71.00			  10.25933			  0.14118			 0.37040
	71.25			  9.99386			  -0.32686			 0.41023
	71.50			  9.98088			  -0.28671			 0.65483
	71.75			  9.94888			  -0.33529			 0.41951
	72.00			  10.15879			  -0.35161			 0.46909
	72.25			  10.06912			  -0.42512			 0.41395
	72.50			  10.09805			  -0.44474			 0.25084
	72.75			  10.02606			  -0.30999			 0.05485
	73.00			  10.02596			  -0.45042			 0.24021
	73.25			  9.93494			  -0.49736			 0.30569
	73.50			  9.68928			  -0.52907			 0.32676
	73.75			  9.74685			  -0.39542			 0.49413
	74.00			  9.72907			  -0.21173			 0.52013
	74.25			  9.81403			  -0.12025			 0.32946
	74.50			  9.74012			  -0.22694			 0.21856
	74.75			  9.65919			  -0.16846			 0.14121
	75.00			  9.61556			  0.02733			 0.39441
	75.25			  9.70754			  0.13495			 0.54868
	75.50			  9.57308			  -0.08816			 0.40998
	75.75			  9.51483			  -0.23556			 0.42955
	76.00			  9.54165			  -0.12483			 0.21775
	76.25			  9.58980			  0.03503			 -0.02368
	76.50			  9.60748			  -0.11713			 -0.14151
	76.75			  9.50330			  -0.25096			 -0.18611
	77.00			  9.57932			  -0.20604			 -0.19845
	77.25			  9.66890			  -0.18276			 -0.15086
	77.50			  9.80634			  -0.09495			 -0.19798
	77.75			  9.53665			  -0.13821			 -0.07773
	78.00			  9.46966			  -0.17231			 0.03401
	78.25			  9.54491			  0.06308			 -0.04667
	78.50			  9.56510			  0.12633			 -0.14542
	78.75			  9.41516			  0.13110			 -0.18105
	79.00			  9.44765			  0.24165			 -0.06838
	79.25			  9.46504			  0.29115			 -0.18090
	79.50			  9.63276			  0.29060			 -0.25256
	79.75			  9.63219			  0.29610			 -0.22355
	80.00			  9.65352			  0.24421			 -0.15409
	80.25			  9.48638			  0.00442			 -0.14166
	80.50			  9.61133			  -0.21026			 0.07877
	80.75			  9.75079			  -0.02986			 0.11965
	81.00			  9.80058			  -0.01501			 0.17802
	81.25			  9.71023			  -0.02015			 0.07874
	81.50			  9.72138			  0.07940			 0.00599
	81.75			  9.67246			  0.01927			 0.03345
	82.00			  9.55693			  0.11148			 -0.04959
	82.25			  9.70110			  0.28565			 -0.24125
	82.50			  9.83412			  0.11882			 -0.05906
	82.75			  9.84469			  -0.10906			 0.01506
	83.00			  9.82028			  -0.20531			 -0.01641
	83.25			  10.05624			  -0.19394			 0.00555
	83.50			  10.08699			  -0.08138			 -0.02272
	83.75			  10.00193			  -0.12465			 0.15214
	84.00			  9.93802			  0.08270			 0.10921
	84.25			  10.05883			  0.06858			 0.19066
	84.50			  10.06902			  0.10562			 0.28488
	84.75			  9.93119			  0.19087			 0.16681
	85.00			  9.95599			  -0.05205			 0.39755
	85.25			  9.89294			  0.04713			 0.15516
	85.50			  9.70984			  -0.08450			 0.13844
	85.75			  9.59364			  0.06363			 0.21179
	86.00			  9.65689			  0.22276			 0.29464
	86.25			  9.60720			  0.18720			 0.19501
	86.50			  9.70783			  0.14870			 0.08185
	86.75			  9.73724			  0.28473			 0.16510
	87.00			  9.81153			  0.43781			 0.23589
	87.25			  9.78866			  0.42919			 0.12571
	87.50			  9.74704			  0.38025			 0.08613
	87.75			  9.82826			  0.54048			 0.22890
	88.00			  9.88391			  0.33735			 0.34701
	88.25			  9.86536			  0.42644			 0.36686
	88.50			  9.60133			  0.38373			 0.27653
	88.75			  9.70706			  0.53498			 0.11254
	89.00			  9.80442			  0.36191			 0.08169
	89.25			  9.70696			  0.31003			 -0.02744
	89.50			  9.85084			  0.28381			 -0.04254
	89.75			  9.80615			  0.19325			 -0.04285
	90.00			  9.72282			  0.54781			 0.02947
	90.25			  9.89227			  0.57091			 0.14568
	90.50			  9.95811			  0.50014			 0.19334
	90.75			  10.06047			  0.57036			 0.39740
	91.00			  10.13947			  0.44954			 0.15634
	91.25			  9.92004			  0.48144			 0.31837
	91.50			  10.11900			  0.67834			 0.08132
	91.75			  10.24443			  0.74342			 -0.00290
	92.00			  10.19080			  0.66019			 -0.04747
	92.25			  10.14533			  0.62701			 0.12863
	92.50			  10.17052			  0.55551			 0.18001
	92.75			  10.07402			  0.37365			 0.16637
	93.00			  10.01135			  0.32085			 0.07799
	93.25			  10.10276			  0.25026			 0.18610
	93.50			  10.17628			  0.38318			 0.09946
	93.75			  10.15773			  0.48273			 0.12680
	94.00			  10.23905			  0.55184			 0.03075
	94.25			  10.37303			  0.55789			 0.00478
	94.50			  10.36505			  0.35898			 0.04724
	94.75			  10.27518			  0.36045			 0.02320
	95.00			  10.21444			  0.30490			 0.07601
	95.25			  10.18657			  0.02202			 0.02407
	95.50			  10.11612			  0.03522			 -0.08236
	95.75			  10.17186			  0.25026			 0.14910
	96.00			  10.24270			  0.27300			 0.19986
	96.25			  10.23136			  0.19545			 -0.04987
	96.50			  10.20598			  0.21818			 0.07420
	96.75			  10.19714			  0.00515			 0.03009
	97.00			  10.08094			  -0.05535			 0.18787
	97.25			  9.98896			  -0.04233			 0.26662
	97.50			  10.15062			  -0.03298			 0.04951
	97.75			  10.16533			  -0.16516			 0.18085
	98.00			  10.15504			  -0.48654			 0.07442
	98.25			  10.24251			  -0.55125			 0.11397
	98.50			  10.24981			  -0.28543			 0.16267
	98.75			  10.20771			  -0.30816			 0.05588
	99.00			  10.19608			  -0.53256			 0.18983
	99.25			  10.06537			  -0.44419			 0.27572
	99.50			  9.99588			  -0.42494			 0.25046
	99.75			  10.07488			  -0.62715			 0.36105
	100.00			  10.21329			  -0.50561			 0.23552
	100.25			  10.10737			  -0.48526			 0.13841
	100.50			  10.27941			  -0.69095			 0.17526
	100.75			  10.30690			  -0.74027			 0.04572
	101.00			  10.30315			  -0.74760			 0.05731
	101.25			  10.44944			  -0.70544			 0.29184
	101.50			  10.27144			  -0.70965			 0.36518
	101.75			  10.18234			  -0.77437			 0.35801
	102.00			  10.17148			  -0.77785			 0.41669
	102.25			  10.24558			  -0.75402			 0.16637
	102.50			  10.29940			  -0.94101			 -0.00681
	102.75			  10.39686			  -0.95201			 0.02025
	103.00			  10.49682			  -0.97053			 0.05600
	103.25			  10.43627			  -1.04643			 -0.08540
	103.50			  10.38004			  -0.91113			 0.05308
	103.75			  10.35188			  -0.90820			 0.01180
	104.00			  10.26730			  -0.80058			 0.00555
	104.25			  10.25298			  -0.66602			 0.03780
	104.50			  10.04788			  -0.79912			 -0.10442
	104.75			  10.12823			  -0.79692			 -0.18733
	105.00			  10.16888			  -0.77272			 -0.25387
	105.25			  10.14562			  -0.67647			 -0.10386
	105.50			  10.25298			  -0.61432			 -0.10115
	105.75			  10.14457			  -0.48672			 -0.00473
	106.00			  10.22011			  -0.45281			 -0.01278
	106.25			  10.26519			  -0.57454			 0.06001
	106.50			  10.28451			  -0.42127			 0.19871
	106.75			  10.19954			  -0.55125			 0.21735
	107.00			  10.15014			  -0.52852			 0.07877
	107.25			  10.05230			  -0.55272			 0.07041
	107.50			  10.11612			  -0.60919			 0.09356
	107.75			  10.20521			  -0.63430			 0.00297
	108.00			  10.29268			  -0.69462			 -0.20323
	108.25			  10.39350			  -0.50726			 -0.28400
	108.50			  10.31459			  -0.64952			 -0.09059
	108.75			  10.34362			  -0.69425			 -0.19978
	109.00			  10.25596			  -0.62367			 -0.19295
	109.25			  10.18186			  -0.56537			 -0.20388
	109.50			  9.96080			  -0.51551			 -0.02470
	109.75			  9.91783			  -0.43319			 0.05988
	110.00			  10.04768			  -0.18514			 0.04131
	110.25			  9.98656			  -0.27901			 -0.15104
	110.50			  10.12486			  -0.34904			 -0.12187
	110.75			  10.13111			  -0.34428			 0.08057
	111.00			  10.04028			  -0.28451			 0.08595
	111.25			  10.08411			  -0.33181			 -0.01585
	111.50			  9.99636			  -0.47059			 0.01490
	111.75			  10.04547			  -0.39176			 -0.10274
	112.00			  10.02875			  -0.19669			 -0.18618
	112.25			  9.92994			  -0.16938			 -0.10861
	112.50			  9.78952			  -0.18771			 -0.12517
	112.75			  9.73974			  -0.05663			 -0.04943
	113.00			  9.79837			  0.11680			 0.03500
	113.25			  9.87564			  0.07555			 0.05693
	113.50			  9.84613			  -0.04746			 -0.06226
	113.75			  9.91822			  -0.03976			 -0.20879
	114.00			  9.87862			  -0.01061			 -0.04719
	114.25			  10.00780			  0.06877			 0.03441
	114.50			  10.01904			  0.00424			 -0.05658
	114.75			  10.04365			  0.15292			 -0.11274
	115.00			  10.11458			  0.01908			 -0.08929
	115.25			  10.13053			  0.09645			 -0.12709
	115.50			  10.23482			  0.20681			 -0.15806
	115.75			  10.22934			  0.16942			 -0.22345
	116.00			  10.06354			  0.36246			 -0.14461
	116.25			  10.13226			  0.24843			 -0.14685
	116.50			  10.23895			  0.17162			 -0.08724
	116.75			  10.04605			  0.00240			 0.02671
	117.00			  10.19358			  -0.01098			 0.11440
	117.25			  10.15716			  -0.04618			 0.07110
	117.50			  10.10622			  0.09737			 -0.07273
	117.75			  10.00914			  0.08875			 0.05578
	118.00			  9.88871			  0.07628			 -0.11221
	118.25			  9.62786			  -0.02638			 0.09200
	118.50			  9.78818			  -0.01006			 0.38214
	118.75			  9.84863			  -0.06378			 0.11589
	119.00			  9.66169			  -0.13290			 0.01667
	119.25			  9.67630			  -0.21099			 -0.01489
	119.50			  9.71657			  -0.20586			 -0.03368
	119.75			  9.63786			  -0.13271			 -0.12774
	120.00			  9.67582			  -0.09275			 0.09511
	120.25			  9.63497			  -0.00548			 0.05143
	120.50			  9.78693			  -0.00548			 0.11428
	120.75			  9.65343			  -0.08523			 -0.00653
	121.00			  9.52492			  0.19637			 -0.14918
	121.25			  9.64285			  0.30600			 0.00167
	121.50			  9.58422			  0.27740			 0.02003
	121.75			  9.50186			  0.25870			 -0.22845
	122.00			  9.52704			  0.29665			 -0.18220
	122.25			  9.49599			  0.17877			 -0.35942
	122.50			  9.61315			  0.17547			 -0.38791
	122.75			  9.68409			  0.04475			 -0.37598
	123.00			  9.48446			  0.04365			 -0.37868
	123.25			  9.43832			  -0.02913			 -0.36980
	123.50			  9.49061			  -0.03023			 -0.03673
	123.75			  9.54213			  -0.06598			 0.04472
	124.00			  9.55952			  -0.35527			 -0.07497
	124.25			  9.48619			  -0.42091			 -0.21429
	124.50			  9.44928			  -0.30138			 -0.11765
	124.75			  9.59364			  -0.39341			 -0.04664
	125.00			  9.52300			  -0.33859			 -0.05207
	125.25			  9.56846			  -0.21686			 -0.02607
	125.50			  9.70888			  -0.05040			 -0.00914
	125.75			  9.65593			  0.01780			 0.04308
	126.00			  9.65237			  -0.01978			 0.00102
	126.25			  9.53751			  0.03742			 0.10281
	126.50			  9.31482			  0.01597			 0.04876
	126.75			  9.26042			  -0.25591			 -0.01402
	127.00			  9.23120			  -0.17029			 0.05873
	127.25			  9.33068			  -0.12245			 0.12136
	127.50			  9.36605			  -0.19816			 0.08237
	127.75			  9.29761			  -0.30908			 0.23978
	128.00			  9.25869			  -0.08651			 0.23005
	128.25			  9.01677			  -0.06488			 0.22002
	128.50			  9.09491			  -0.02950			 0.09968
	128.75			  9.17247			  0.13642			 -0.00933
	129.00			  9.21342			  0.16080			 -0.12619
	129.25			  9.22245			  0.12175			 -0.31534
	129.50			  9.42093			  -0.03133			 -0.24917
	129.75			  9.32895			  -0.00163			 -0.20171
	130.00			  9.50810			  -0.01923			 -0.23569
	130.25			  9.32635			  -0.25646			 -0.14362
	130.50			  9.28762			  -0.03940			 -0.25613
	130.75			  9.40901			  -0.01941			 -0.19984
	131.00			  9.37201			  -0.08505			 -0.41148
	131.25			  9.50522			  -0.04691			 -0.39235
	131.50			  9.57903			  -0.11475			 -0.25309
	131.75			  9.42602			  -0.34061			 -0.24964
	132.00			  9.53905			  -0.24784			 -0.34022
	132.25			  9.63536			  -0.35417			 -0.47281
	132.50			  9.55981			  -0.40074			 -0.38309
	132.75			  9.52310			  -0.27131			 -0.16347
	133.00			  9.40468			  -0.20659			 -0.11911
	133.25			  9.46677			  -0.16828			 -0.34603
	133.50			  9.37672			  -0.09366			 -0.28785
	133.75			  9.33491			  0.06308			 -0.30835
	134.00			  9.54309			  -0.00420			 -0.25545
	134.25			  9.62988			  0.02752			 -0.25868
	134.50			  9.80932			  -0.18808			 -0.21177
	134.75			  9.71388			  -0.22144			 -0.28611
	135.00			  9.71254			  -0.13106			 -0.04412
	135.25			  9.92053			  -0.01831			 -0.17978
	135.50			  9.76982			  0.01982			 -0.08345
	135.75			  9.72743			  -0.18734			 -0.11411
	136.00			  9.85872			  -0.33218			 -0.07605
	136.25			  9.96176			  -0.35234			 -0.21134
	136.50			  9.66890			  -0.16718			 -0.08904
	136.75			  9.67323			  -0.07936			 -0.16651
	137.00			  9.39709			  -0.09531			 -0.12802
	137.25			  9.38988			  -0.02381			 -0.19978
	137.50			  9.33654			  -0.01923			 -0.21292
	137.75			  9.47744			  0.12358			 -0.10081
	138.00			  9.48196			  0.10342			 -0.14353
	138.25			  9.43602			  0.16373			 -0.17052
	138.50			  9.26061			  0.20535			 -0.22053
	138.75			  9.06492			  0.09590			 -0.04101
	139.00			  9.19910			  0.09883			 -0.09159
	139.25			  9.26638			  -0.09348			 -0.04226
	139.50			  9.38296			  -0.13510			 -0.08575
	139.75			  9.32212			  -0.37837			 0.00624
	140.00			  9.33529			  -0.48526			 0.22086
	140.25			  9.62651			  -0.58645			 0.34462
	140.50			  9.62209			  -0.80682			 0.39069
	140.75			  9.44082			  -0.81708			 0.24419
	141.00			  9.35922			  -0.86108			 0.32651
	141.25			  9.42516			  -0.78793			 0.31343
	141.50			  9.60979			  -0.68637			 0.33129
	141.75			  9.60268			  -0.43777			 0.26261
	142.00			  9.63046			  -0.41907			 0.11521
	142.25			  9.55654			  -0.43741			 0.04870
	142.50			  9.53050			  -0.36737			 0.03034
	142.75			  9.52540			  -0.47994			 -0.08503
	143.00			  9.73666			  -0.57655			 -0.17586
	143.25			  9.81865			  -0.57784			 -0.09087
	143.50			  9.91687			  -0.48232			 0.12683
	143.75			  9.79817			  -0.67372			 0.28591
	144.00			  9.84565			  -0.47976			 0.34421
	144.25			  9.71561			  -0.52577			 0.33738
	144.50			  9.73762			  -0.36022			 0.37494
	144.75			  9.75329			  -0.23098			 0.44958
	145.00			  9.64458			  -0.25243			 0.49171
	145.25			  9.68197			  -0.18129			 0.25723
	145.50			  9.70783			  -0.21631			 0.27270
	145.75			  9.74627			  -0.14793			 0.37404
	146.00			  9.48436			  -0.18129			 0.35061
	146.25			  9.52579			  -0.30834			 0.28991
	146.50			  9.64218			  -0.50561			 0.35384
	146.75			  9.63353			  -0.28818			 0.29954
	147.00			  9.58759			  -0.39506			 0.27308
	147.25			  9.51339			  -0.70324			 0.10201
	147.50			  9.69552			  -0.79912			 0.23707
	147.75			  9.65660			  -0.78518			 0.25770
	148.00			  9.65535			  -0.75292			 0.12850
	148.25			  9.65448			  -0.57215			 0.15283
	148.50			  9.71206			  -0.72890			 0.26031
	148.75			  9.75300			  -0.56592			 0.40960
	149.00			  9.80375			  -0.55437			 0.50845
	149.25			  9.83239			  -0.32448			 0.46903
	149.50			  9.68995			  -0.26123			 0.39960
	149.75			  9.50560			  -0.46527			 0.35012
	150.00			  9.51935			  -0.75108			 0.21909
	150.25			  9.47792			  -0.70984			 0.29858
	150.50			  9.51156			  -0.67134			 0.29380
	150.75			  9.46024			  -0.51422			 0.15770
	151.00			  9.36461			  -0.57105			 0.18448
	151.25			  9.36307			  -0.58022			 0.18976
	151.50			  9.55875			  -0.42329			 0.30138
	151.75			  9.47004			  -0.29313			 0.35540
	152.00			  9.38892			  -0.31458			 0.29147
	152.25			  9.19468			  -0.27883			 0.31967
	152.50			  9.22928			  -0.26893			 0.24717
	152.75			  9.21688			  -0.27663			 0.17078
	153.00			  9.19506			  -0.43319			 0.13994
	153.25			  9.44409			  -0.24033			 0.30992
	153.50			  9.55923			  -0.28983			 0.43508
	153.75			  9.52502			  -0.33969			 0.35366
	154.00			  9.61306			  -0.21704			 0.27022
	154.25			  9.74118			  -0.18753			 0.34583
	154.50			  9.78875			  -0.15581			 0.22101
	154.75			  9.67515			  -0.26141			 0.04612
	155.00			  9.81288			  -0.33291			 0.03562
	155.25			  9.86516			  -0.47719			 0.07635
	155.50			  9.76011			  -0.60735			 0.05880
	155.75			  9.80307			  -0.46784			 -0.15955
	156.00			  9.85959			  -0.56537			 -0.22401
	156.25			  9.73829			  -0.34189			 -0.05316
	156.50			  9.79298			  -0.20054			 0.17240
	156.75			  9.78568			  -0.36371			 0.14745
	157.00			  9.84921			  -0.27754			 0.03805
	157.25			  9.89765			  -0.14811			 -0.20398
	157.50			  9.86718			  -0.00860			 -0.07161
	157.75			  9.85296			  -0.15141			 -0.01240
	158.00			  9.76511			  -0.26636			 -0.12318
	158.25			  9.72176			  -0.17928			 -0.28552
	158.50			  9.59787			  -0.12135			 -0.42761
	158.75			  9.58307			  -0.19816			 -0.32478
	159.00			  9.55866			  -0.37141			 -0.32615
	159.25			  9.59076			  -0.40569			 -0.25284
	159.50			  9.73291			  -0.30596			 -0.26275
	159.75			  9.89506			  -0.15985			 -0.19832
	160.00			  10.05883			  0.01267			 -0.50791
	160.25			  10.08363			  -0.02546			 -0.50744
	160.50			  9.99473			  -0.02033			 -0.62076
	160.75			  9.83518			  -0.05810			 -0.63465
	161.00			  9.77953			  -0.07111			 -0.48936
	161.25			  9.87295			  -0.05205			 -0.31217
	161.50			  9.85382			  -0.00383			 -0.29496
	161.75			  9.91639			  0.01670			 -0.31711
	162.00			  10.04403			  -0.18844			 -0.19646
	162.25			  9.83056			  -0.02381			 -0.29133
	162.50			  9.99732			  -0.00695			 -0.19329
	162.75			  9.97608			  0.13403			 -0.29493
	163.00			  9.91639			  0.23046			 -0.24402
	163.25			  9.91610			  -0.01593			 -0.11759
	163.50			  9.98502			  -0.15416			 -0.11554
	163.75			  10.19714			  -0.20769			 -0.25244
	164.00			  10.18753			  -0.27314			 -0.29540
	164.25			  10.19185			  -0.28506			 -0.42273
	164.50			  10.11929			  -0.03243			 -0.32578
	164.75			  10.11208			  0.08160			 -0.29002
	165.00			  10.08757			  -0.11145			 -0.30826
	165.25			  10.01318			  -0.09348			 -0.21121
	165.50			  9.88112			  -0.08981			 -0.31842
	165.75			  9.89208			  -0.10081			 -0.26542
	166.00			  9.78904			  -0.14610			 -0.24694