--------------TurbSim v2.00.* User Time Series Input File-----------------------
     Time series input from low-res turbsim run
--------------------------------------------------------------------------------
          3 nComp - Number of velocity components in the file
          1 nPoints - Number of time series points contained in this file (-)
          1 RefPtID - Index of the reference point (1-nPoints)
     Pointyi Pointzi ! nPoints listed in order of increasing height
       (m)     (m)
       4.44140   94.00000
--------Time Series-------------------------------------------------------------
Elapsed Time         Point01u             Point01v           Point01w
         (s)            (m/s)                (m/s)              (m/s)
	0.00			  9.60921			  -0.16358			 -0.08299
	0.25			  9.61680			  -0.09457			 -0.17257
	0.50			  9.64627			  0.04962			 -0.13793
	0.75			  9.64255			  0.09946			 -0.12531
	1.00			  9.87957			  0.08212			 -0.16028
	1.25			  9.87563			  0.01628			 -0.01859
	1.50			  9.80984			  -0.13408			 0.02512
	1.75			  9.79786			  -0.01206			 0.07301
	2.00			  9.91403			  -0.11691			 0.06274
	2.25			  9.91016			  -0.14591			 0.07010
	2.50			  9.77970			  -0.16908			 -0.02107
	2.75			  9.75432			  -0.21343			 -0.03132
	3.00			  9.73111			  -0.32694			 0.04044
	3.25			  9.81289			  -0.22176			 -0.03548
	3.50			  9.83075			  -0.34611			 0.09874
	3.75			  9.90368			  -0.28377			 0.10554
	4.00			  9.87518			  -0.31778			 0.13540
	4.25			  9.82532			  -0.32845			 0.15423
	4.50			  9.77859			  -0.34245			 0.17030
	4.75			  9.79883			  -0.27210			 0.22571
	5.00			  9.85025			  -0.26910			 0.10202
	5.25			  9.89036			  -0.34395			 -0.02284
	5.50			  9.93963			  -0.19326			 -0.01220
	5.75			  10.03644			  -0.22459			 -0.12624
	6.00			  9.99432			  -0.35112			 -0.17723
	6.25			  9.89929			  -0.37445			 -0.04274
	6.50			  9.90286			  -0.25327			 -0.06008
	6.75			  9.98264			  -0.34511			 -0.08805
	7.00			  10.04351			  -0.26043			 -0.03955
	7.25			  10.12947			  -0.28911			 -0.06842
	7.50			  10.09591			  -0.40979			 -0.05528
	7.75			  10.17784			  -0.34862			 -0.06786
	8.00			  10.07611			  -0.12641			 -0.08858
	8.25			  10.06182			  -0.19342			 -0.06949
	8.50			  10.09925			  -0.25127			 -0.09502
	8.75			  10.10007			  -0.22543			 -0.12193
	9.00			  10.11049			  -0.36962			 -0.10949
	9.25			  10.15730			  -0.30644			 -0.05749
	9.50			  10.17501			  -0.33095			 -0.06188
	9.75			  10.15269			  -0.23476			 -0.12005
	10.00			  10.14837			  -0.28094			 -0.06712
	10.25			  10.26744			  -0.31661			 0.05321
	10.50			  10.38190			  -0.25593			 0.08853
	10.75			  10.27049			  -0.29077			 0.01824
	11.00			  10.31514			  -0.28427			 -0.08887
	11.25			  10.25903			  -0.25410			 -0.05538
	11.50			  10.17829			  -0.11941			 -0.10192
	11.75			  10.15477			  -0.18359			 -0.14744
	12.00			  10.29155			  -0.12458			 -0.00204
	12.25			  10.34030			  -0.27344			 -0.07765
	12.50			  10.35473			  -0.15275			 -0.00084
	12.75			  10.37713			  -0.04073			 0.02322
	13.00			  10.31715			  0.07029			 0.08297
	13.25			  10.36634			  0.07496			 0.08499
	13.50			  10.27823			  -0.04206			 0.03789
	13.75			  10.33933			  -0.15825			 0.08558
	14.00			  10.31797			  -0.17575			 0.10499
	14.25			  10.33367			  -0.12658			 0.07713
	14.50			  10.21706			  -0.20526			 0.00821
	14.75			  10.23693			  -0.16158			 0.03716
	15.00			  10.33561			  -0.10057			 0.02927
	15.25			  10.29564			  -0.15475			 0.01042
	15.50			  10.25844			  -0.18992			 0.18584
	15.75			  10.27257			  -0.22959			 0.19096
	16.00			  10.27793			  -0.23343			 0.18244
	16.25			  10.26364			  -0.15975			 0.21296
	16.50			  10.25657			  -0.21426			 0.17390
	16.75			  10.26967			  -0.28594			 0.07286
	17.00			  10.34990			  -0.25427			 0.23470
	17.25			  10.44188			  -0.26443			 0.11019
	17.50			  10.44478			  -0.18275			 0.08903
	17.75			  10.39306			  -0.30677			 0.06684
	18.00			  10.42610			  -0.24810			 -0.09147
	18.25			  10.29959			  -0.24426			 -0.13471
	18.50			  10.37408			  -0.27744			 -0.04835
	18.75			  10.34498			  -0.24793			 -0.04683
	19.00			  10.23403			  -0.27694			 0.07131
	19.25			  10.24400			  -0.33778			 0.08241
	19.50			  10.19220			  -0.26110			 0.03964
	19.75			  10.20366			  -0.31944			 0.07168
	20.00			  10.21490			  -0.32811			 -0.01659
	20.25			  10.23150			  -0.25827			 0.00345
	20.50			  10.25501			  -0.24977			 0.07024
	20.75			  10.23179			  -0.29294			 -0.00979
	21.00			  10.18089			  -0.10657			 -0.01882
	21.25			  10.09858			  -0.04906			 0.01153
	21.50			  10.06971			  -0.05457			 0.06746
	21.75			  10.17851			  -0.14808			 -0.05495
	22.00			  10.14926			  -0.16308			 0.00262
	22.25			  10.07150			  -0.11808			 -0.02561
	22.50			  10.04642			  -0.05573			 -0.06670
	22.75			  9.99514			  -0.27244			 -0.09205
	23.00			  10.06778			  -0.25743			 -0.08236
	23.25			  10.19622			  -0.31761			 -0.00286
	23.50			  10.23016			  -0.25360			 0.00361
	23.75			  10.31767			  -0.22643			 -0.07536
	24.00			  10.41501			  -0.16275			 -0.00197
	24.25			  10.32884			  -0.11157			 0.04114
	24.50			  10.38234			  -0.19259			 0.09101
	24.75			  10.48645			  -0.25060			 0.09701
	25.00			  10.37877			  -0.38362			 0.08789
	25.25			  10.41791			  -0.26093			 -0.02117
	25.50			  10.43823			  -0.30227			 -0.04647
	25.75			  10.30487			  -0.15542			 -0.07891
	26.00			  10.25323			  -0.11408			 -0.03827
	26.25			  10.19042			  -0.20209			 -0.03008
	26.50			  10.19786			  -0.37729			 0.04356
	26.75			  10.16988			  -0.38112			 0.00007
	27.00			  10.11042			  -0.43596			 -0.06718
	27.25			  10.16511			  -0.43296			 0.06177
	27.50			  10.12872			  -0.39312			 0.06271
	27.75			  10.13758			  -0.32644			 0.08076
	28.00			  10.16229			  -0.28760			 0.11311
	28.25			  10.15529			  -0.35028			 -0.03796
	28.50			  10.20173			  -0.32344			 -0.01565
	28.75			  10.19384			  -0.36128			 0.15800
	29.00			  10.15938			  -0.39679			 0.17225
	29.25			  10.23499			  -0.47130			 0.11394
	29.50			  10.25896			  -0.34611			 0.12738
	29.75			  10.23499			  -0.31894			 0.23632
	30.00			  10.21572			  -0.26493			 0.27573
	30.25			  10.23938			  -0.30011			 0.19906
	30.50			  10.16065			  -0.35762			 0.17063
	30.75			  10.21490			  -0.40329			 0.24012
	31.00			  10.21937			  -0.23060			 0.16893
	31.25			  10.26305			  -0.33961			 0.17364
	31.50			  10.31819			  -0.27510			 0.13503
	31.75			  10.39380			  -0.18392			 0.08082
	32.00			  10.36374			  -0.27110			 0.04830
	32.25			  10.29423			  -0.36045			 0.08793
	32.50			  10.23097			  -0.38079			 0.08777
	32.75			  10.18164			  -0.37429			 -0.01338
	33.00			  10.14911			  -0.40479			 -0.00866
	33.25			  10.18662			  -0.39829			 -0.10489
	33.50			  10.16690			  -0.43330			 -0.06567
	33.75			  10.17844			  -0.48714			 -0.06633
	34.00			  10.22130			  -0.58482			 -0.05235
	34.25			  10.16951			  -0.57799			 -0.12331
	34.50			  10.20374			  -0.53898			 -0.20470
	34.75			  10.17598			  -0.59216			 -0.08959
	35.00			  10.14591			  -0.55248			 -0.05314
	35.25			  10.29103			  -0.44980			 -0.08380
	35.50			  10.35086			  -0.47714			 -0.08116
	35.75			  10.34030			  -0.45413			 -0.10997
	36.00			  10.22071			  -0.41446			 -0.15995
	36.25			  10.28485			  -0.50397			 -0.06866
	36.50			  10.33434			  -0.49964			 -0.13346
	36.75			  10.28084			  -0.43363			 -0.13560
	37.00			  10.20381			  -0.42296			 -0.03794
	37.25			  10.20649			  -0.37845			 0.02704
	37.50			  10.15849			  -0.45763			 -0.02777
	37.75			  10.15492			  -0.37479			 -0.13401
	38.00			  10.16764			  -0.22693			 -0.04285
	38.25			  10.18603			  -0.18075			 -0.06363
	38.50			  10.19496			  -0.24026			 -0.05549
	38.75			  10.17576			  -0.30494			 0.05812
	39.00			  10.07559			  -0.19859			 0.00062
	39.25			  10.04813			  -0.06557			 -0.11263
	39.50			  10.05125			  -0.17025			 -0.18470
	39.75			  10.02885			  -0.12291			 -0.13502
	40.00			  10.16668			  -0.13325			 -0.13616
	40.25			  10.18431			  -0.15875			 -0.16934
	40.50			  10.26729			  -0.13825			 -0.21926
	40.75			  10.36753			  -0.15825			 -0.09130
	41.00			  10.33977			  -0.05890			 -0.11673
	41.25			  10.29177			  -0.11658			 -0.06431
	41.50			  10.17948			  -0.11174			 -0.09646
	41.75			  10.21520			  -0.15625			 -0.12158
	42.00			  10.26372			  -0.15958			 -0.09112
	42.25			  10.26491			  -0.14725			 -0.03794
	42.50			  10.40593			  -0.22159			 -0.03437
	42.75			  10.38770			  -0.05206			 0.02358
	43.00			  10.28404			  -0.06307			 -0.01197
	43.25			  10.36195			  -0.03740			 -0.04963
	43.50			  10.31961			  -0.01356			 -0.08951
	43.75			  10.22897			  0.11280			 -0.08429
	44.00			  10.28433			  0.15930			 -0.07440
	44.25			  10.25806			  0.13780			 -0.08730
	44.50			  10.26231			  0.28066			 -0.17542
	44.75			  10.32377			  0.22448			 -0.10609
	45.00			  10.29713			  0.27466			 -0.15137
	45.25			  10.29378			  0.19714			 -0.18767
	45.50			  10.41360			  0.10296			 -0.12799
	45.75			  10.35964			  0.07362			 -0.11075
	46.00			  10.34900			  -0.04940			 -0.13527
	46.25			  10.33717			  -0.07273			 -0.04082
	46.50			  10.27563			  0.02878			 -0.04101
	46.75			  10.24519			  0.06979			 -0.00769
	47.00			  10.28411			  -0.05940			 0.00931
	47.25			  10.29319			  -0.02823			 0.03053
	47.50			  10.34037			  0.04345			 0.07354
	47.75			  10.38085			  -0.00989			 0.14664
	48.00			  10.40288			  -0.08074			 0.11144
	48.25			  10.42565			  -0.02856			 0.04263
	48.50			  10.41963			  -0.14491			 0.08216
	48.75			  10.37966			  -0.06790			 0.12848
	49.00			  10.36292			  -0.01239			 0.07797
	49.25			  10.41717			  -0.06123			 -0.02317
	49.50			  10.46257			  -0.08307			 -0.00397
	49.75			  10.49404			  -0.06940			 -0.13366
	50.00			  10.51622			  0.01061			 -0.11411
	50.25			  10.42833			  0.07012			 -0.07866
	50.50			  10.34699			  0.01095			 -0.10832
	50.75			  10.31455			  -0.07674			 -0.16645
	51.00			  10.26990			  -0.03890			 -0.13442
	51.25			  10.22227			  0.04278			 -0.06417
	51.50			  10.28180			  -0.07040			 -0.11935
	51.75			  10.31648			  -0.00706			 -0.16593
	52.00			  10.34521			  -0.04806			 -0.11609
	52.25			  10.39425			  -0.25193			 -0.17668
	52.50			  10.32236			  -0.21159			 -0.16319
	52.75			  10.16988			  -0.07040			 -0.26048
	53.00			  10.23455			  -0.16075			 -0.16789
	53.25			  10.22919			  -0.10657			 -0.17789
	53.50			  10.31737			  -0.02256			 -0.16150
	53.75			  10.28910			  -0.06790			 -0.13479
	54.00			  10.27518			  -0.20709			 0.01648
	54.25			  10.29014			  -0.23093			 0.13002
	54.50			  10.29721			  -0.07557			 0.13726
	54.75			  10.21817			  -0.14241			 0.07028
	55.00			  10.16794			  0.00745			 0.13334
	55.25			  10.27957			  -0.06190			 0.09358
	55.50			  10.19369			  -0.00606			 0.09365
	55.75			  10.15135			  0.00861			 0.14060
	56.00			  10.00965			  -0.06023			 0.06966
	56.25			  10.01717			  -0.19742			 0.00366
	56.50			  9.98956			  -0.36495			 -0.09197
	56.75			  9.99685			  -0.29844			 -0.00364
	57.00			  10.03719			  -0.19126			 0.00172
	57.25			  9.99120			  -0.16908			 -0.04612
	57.50			  10.06294			  -0.15275			 -0.08718
	57.75			  9.98242			  -0.13308			 -0.06507
	58.00			  9.96277			  -0.17008			 -0.01542
	58.25			  9.91678			  -0.20409			 -0.00863
	58.50			  9.80247			  -0.29194			 -0.06672
	58.75			  9.78967			  -0.29744			 -0.08788
	59.00			  9.88835			  -0.32578			 0.01776
	59.25			  9.90301			  -0.27244			 -0.01979
	59.50			  9.86692			  -0.34895			 -0.17847
	59.75			  9.90599			  -0.36495			 -0.18765
	60.00			  9.89289			  -0.40396			 -0.19468
	60.25			  9.84586			  -0.39046			 -0.21313
	60.50			  9.85955			  -0.27644			 -0.18983
	60.75			  9.87176			  -0.27760			 -0.20524
	61.00			  9.89267			  -0.25777			 -0.18031
	61.25			  9.95406			  -0.10074			 -0.15346
	61.50			  9.91611			  -0.09341			 -0.18845
	61.75			  9.96500			  -0.09607			 -0.16160
	62.00			  9.95116			  -0.08990			 -0.19126
	62.25			  10.00876			  -0.01022			 -0.03060
	62.50			  10.00846			  -0.09491			 -0.04992
	62.75			  9.97743			  -0.26527			 -0.09302
	63.00			  10.02997			  -0.16158			 -0.07852
	63.25			  10.01300			  -0.15208			 -0.03711
	63.50			  9.98286			  -0.19609			 -0.00067
	63.75			  9.94967			  -0.18142			 -0.00967
	64.00			  9.97572			  -0.22126			 -0.00952
	64.25			  9.78766			  -0.24510			 -0.07596
	64.50			  9.86975			  -0.26393			 -0.04942
	64.75			  9.85717			  -0.22009			 -0.10692
	65.00			  9.88478			  -0.18742			 -0.07786
	65.25			  9.94305			  -0.24893			 -0.12374
	65.50			  9.98428			  -0.41029			 0.00679
	65.75			  9.97661			  -0.55865			 0.05702
	66.00			  9.98867			  -0.55882			 -0.10580
	66.25			  10.01218			  -0.41946			 -0.07751
	66.50			  9.93546			  -0.34545			 -0.02620
	66.75			  9.99596			  -0.26060			 -0.05629
	67.00			  9.95183			  -0.21809			 0.02838
	67.25			  10.03853			  -0.14208			 -0.00356
	67.50			  9.96076			  -0.20559			 0.00384
	67.75			  9.87697			  -0.08590			 0.09878
	68.00			  9.82897			  -0.14291			 -0.01457
	68.25			  9.93040			  -0.18542			 -0.10747
	68.50			  9.95339			  -0.25477			 -0.03986
	68.75			  9.92020			  -0.22226			 0.09323
	69.00			  9.91209			  -0.42413			 0.13132
	69.25			  9.83976			  -0.39862			 0.13266
	69.50			  9.93829			  -0.26293			 0.13338
	69.75			  9.85055			  -0.15825			 0.11412
	70.00			  9.90740			  -0.20309			 0.10932
	70.25			  9.98614			  -0.21726			 0.09177
	70.50			  9.92325			  -0.07674			 0.00483
	70.75			  9.92177			  -0.01406			 0.03455
	71.00			  10.00058			  -0.01089			 0.10157
	71.25			  10.03816			  0.19464			 0.09913
	71.50			  9.98227			  0.18031			 0.02867
	71.75			  9.84296			  0.17014			 0.10911
	72.00			  9.82413			  0.03962			 0.08352
	72.25			  9.86975			  0.01745			 0.00984
	72.50			  9.86662			  -0.13725			 -0.03534
	72.75			  9.99365			  -0.07140			 -0.03486
	73.00			  9.89029			  -0.03940			 0.06781
	73.25			  9.89096			  -0.05073			 0.10930
	73.50			  9.96069			  -0.04140			 0.13590
	73.75			  10.05274			  -0.10291			 0.03871
	74.00			  10.06859			  -0.14908			 0.21725
	74.25			  10.02685			  -0.13375			 0.25668
	74.50			  9.92675			  -0.06157			 0.26575
	74.75			  9.94186			  -0.05590			 0.12433
	75.00			  9.89133			  -0.06573			 0.08220
	75.25			  9.82033			  -0.08007			 0.15947
	75.50			  9.94655			  -0.23276			 0.17374
	75.75			  9.98562			  -0.33295			 0.16514
	76.00			  9.88932			  -0.24810			 0.29437
	76.25			  9.87146			  -0.37995			 0.13608
	76.50			  9.91112			  -0.41729			 0.19848
	76.75			  9.82711			  -0.50881			 0.09276
	77.00			  9.76058			  -0.51398			 0.00161
	77.25			  9.66197			  -0.46997			 0.08210
	77.50			  9.71339			  -0.43780			 0.22696
	77.75			  9.71049			  -0.48114			 0.18073
	78.00			  9.72590			  -0.52998			 0.19213
	78.25			  9.73795			  -0.56398			 0.15844
	78.50			  9.74562			  -0.63416			 0.13056
	78.75			  9.78208			  -0.48030			 0.19149
	79.00			  9.84504			  -0.34411			 0.18632
	79.25			  9.83157			  -0.33961			 0.10328
	79.50			  9.81096			  -0.44647			 0.11221
	79.75			  9.79101			  -0.34328			 0.13010
	80.00			  9.75916			  -0.31728			 0.12712
	80.25			  9.69293			  -0.35595			 0.09752
	80.50			  9.59254			  -0.27227			 0.00716
	80.75			  9.56872			  -0.28794			 -0.03612
	81.00			  9.61152			  -0.29411			 -0.05431
	81.25			  9.61568			  -0.32995			 -0.04934
	81.50			  9.58673			  -0.30827			 -0.05124
	81.75			  9.72724			  -0.34611			 -0.12731
	82.00			  9.78097			  -0.31711			 -0.16608
	82.25			  9.84668			  -0.34928			 -0.19804
	82.50			  9.85263			  -0.41379			 -0.18297
	82.75			  9.82227			  -0.37095			 -0.09137
	83.00			  9.78513			  -0.46080			 0.01537
	83.25			  9.73587			  -0.25877			 0.05286
	83.50			  9.75246			  -0.22159			 -0.00344
	83.75			  9.76735			  -0.25827			 -0.10368
	84.00			  9.82852			  -0.12991			 -0.06895
	84.25			  9.85940			  -0.13941			 0.06034
	84.50			  9.91544			  -0.14608			 0.03354
	84.75			  9.89877			  -0.26944			 0.06948
	85.00			  9.82205			  -0.28911			 0.10394
	85.25			  9.72783			  -0.27444			 0.08200
	85.50			  9.64218			  -0.31344			 0.18549
	85.75			  9.66703			  -0.25443			 0.11132
	86.00			  9.72649			  -0.27160			 0.20502
	86.25			  9.65535			  -0.37512			 0.07641
	86.50			  9.72954			  -0.38379			 0.02956
	86.75			  9.77948			  -0.34595			 0.00596
	87.00			  9.73899			  -0.23343			 -0.00241
	87.25			  9.76742			  -0.12791			 -0.00789
	87.50			  9.78766			  -0.23510			 0.06620
	87.75			  9.73505			  -0.11958			 0.09239
	88.00			  9.72552			  0.04662			 0.18454
	88.25			  9.64619			  -0.12091			 0.18108
	88.50			  9.62900			  -0.18009			 0.06391
	88.75			  9.69412			  -0.24993			 0.03859
	89.00			  9.80091			  -0.27560			 0.02673
	89.25			  9.84400			  -0.24143			 0.10971
	89.50			  9.86320			  -0.22143			 0.09816
	89.75			  9.85710			  -0.35828			 0.15646
	90.00			  9.88396			  -0.12691			 0.19333
	90.25			  9.83574			  0.00845			 0.01863
	90.50			  9.78186			  0.01978			 0.10503
	90.75			  9.65259			  -0.10274			 0.16345
	91.00			  9.61710			  -0.18075			 0.25756
	91.25			  9.68906			  -0.16892			 0.21304
	91.50			  9.69077			  -0.20792			 0.13897
	91.75			  9.70104			  -0.25060			 0.09668
	92.00			  9.67626			  -0.24243			 0.04300
	92.25			  9.69576			  -0.30611			 0.01570
	92.50			  9.66807			  -0.35162			 0.02589
	92.75			  9.64828			  -0.48647			 0.02477
	93.00			  9.78208			  -0.42079			 -0.02767
	93.25			  9.76608			  -0.40846			 -0.04534
	93.50			  9.91150			  -0.44813			 0.01733
	93.75			  9.91098			  -0.48330			 0.05005
	94.00			  9.92586			  -0.46730			 0.07239
	94.25			  9.96113			  -0.35045			 0.07111
	94.50			  9.94982			  -0.27094			 0.07115
	94.75			  9.96426			  -0.22976			 0.04931
	95.00			  9.93799			  -0.18392			 0.02052
	95.25			  9.87094			  -0.25860			 0.12177
	95.50			  9.78551			  -0.18875			 0.15143
	95.75			  9.74725			  -0.20526			 0.08367
	96.00			  9.77204			  -0.34228			 0.14858
	96.25			  9.82420			  -0.34678			 -0.00303
	96.50			  9.84147			  -0.35462			 -0.06644
	96.75			  9.90242			  -0.33145			 -0.00100
	97.00			  9.93390			  -0.30077			 0.01089
	97.25			  9.97765			  -0.27044			 -0.05914
	97.50			  10.04813			  -0.33478			 -0.04435
	97.75			  9.91060			  -0.37129			 -0.10854
	98.00			  9.79042			  -0.31228			 -0.06297
	98.25			  9.74316			  -0.33178			 -0.00381
	98.50			  9.73059			  -0.25193			 0.00275
	98.75			  9.78164			  -0.21959			 -0.02969
	99.00			  9.79860			  -0.20176			 0.02057
	99.25			  9.87399			  -0.29344			 -0.01839
	99.50			  9.80798			  -0.23426			 -0.09481
	99.75			  9.88456			  -0.24743			 -0.06095
	100.00			  9.93791			  -0.33795			 -0.10778
	100.25			  9.96366			  -0.19326			 -0.10782
	100.50			  9.85077			  -0.30311			 -0.14733
	100.75			  9.87518			  -0.13625			 -0.05037
	101.00			  9.84787			  -0.11758			 0.06267
	101.25			  9.83284			  -0.10424			 0.15601
	101.50			  9.83812			  -0.15942			 0.08129
	101.75			  9.82219			  -0.22009			 -0.06990
	102.00			  9.88218			  -0.12341			 -0.16769
	102.25			  9.97445			  -0.12074			 -0.02146
	102.50			  10.00422			  0.05712			 -0.06118
	102.75			  10.06227			  0.08246			 -0.05328
	103.00			  9.97870			  0.08396			 -0.09681
	103.25			  9.86781			  0.02195			 -0.08780
	103.50			  9.88344			  0.09463			 -0.03321
	103.75			  9.96582			  0.10179			 -0.04084
	104.00			  9.93873			  0.03762			 -0.07075
	104.25			  9.99871			  -0.04340			 -0.08025
	104.50			  9.96776			  -0.01139			 -0.04163
	104.75			  9.94484			  0.04812			 -0.00193
	105.00			  9.86565			  0.09813			 0.00232
	105.25			  9.83685			  0.11946			 -0.10283
	105.50			  9.80002			  0.09663			 -0.11032
	105.75			  9.80813			  0.02878			 -0.10710
	106.00			  9.76184			  0.00895			 -0.17255
	106.25			  9.78618			  -0.15225			 -0.13933
	106.50			  9.84802			  -0.25893			 -0.07951
	106.75			  9.74971			  -0.22809			 -0.06588
	107.00			  9.75261			  -0.23610			 -0.10469
	107.25			  9.77739			  -0.32794			 -0.04878
	107.50			  9.77464			  -0.35828			 -0.10428
	107.75			  9.81319			  -0.36395			 -0.00593
	108.00			  9.76653			  -0.45730			 -0.01876
	108.25			  9.71831			  -0.50064			 -0.11151
	108.50			  9.68638			  -0.49631			 -0.15581
	108.75			  9.78171			  -0.49697			 -0.12271
	109.00			  9.65267			  -0.56665			 -0.13663
	109.25			  9.65178			  -0.48530			 -0.10403
	109.50			  9.67038			  -0.39312			 -0.14964
	109.75			  9.66391			  -0.27010			 -0.17892
	110.00			  9.70179			  -0.21393			 -0.12364
	110.25			  9.62685			  -0.20092			 -0.17072
	110.50			  9.55682			  -0.22043			 -0.12595
	110.75			  9.45241			  -0.27827			 -0.09368
	111.00			  9.58279			  -0.18359			 -0.12943
	111.25			  9.62000			  -0.16342			 -0.13900
	111.50			  9.48753			  -0.19542			 -0.18202
	111.75			  9.64448			  -0.18942			 -0.10518
	112.00			  9.72895			  -0.13441			 -0.19689
	112.25			  9.63347			  -0.16125			 -0.16267
	112.50			  9.63890			  -0.11624			 -0.10883
	112.75			  9.67827			  -0.09190			 -0.08495
	113.00			  9.72314			  -0.10957			 -0.13865
	113.25			  9.82420			  -0.10724			 -0.18379
	113.50			  9.96872			  -0.09424			 -0.21911
	113.75			  9.79072			  -0.07907			 -0.21252
	114.00			  9.75373			  -0.14191			 -0.19608
	114.25			  9.75284			  -0.15342			 -0.03330
	114.50			  9.84683			  -0.07940			 -0.06903
	114.75			  9.89870			  -0.13858			 -0.10834
	115.00			  9.90599			  -0.18842			 -0.14432
	115.25			  9.88418			  -0.16742			 -0.16965
	115.50			  9.86826			  -0.19526			 -0.18340
	115.75			  9.88165			  -0.22809			 -0.14612
	116.00			  9.90822			  -0.09491			 -0.12034
	116.25			  9.90755			  -0.07757			 -0.18880
	116.50			  9.90636			  -0.03239			 -0.18942
	116.75			  9.90993			  -0.05540			 -0.26040
	117.00			  9.94082			  -0.14425			 -0.25601
	117.25			  9.94513			  -0.16575			 -0.24233
	117.50			  9.96240			  -0.27294			 -0.21495
	117.75			  10.00437			  -0.28360			 -0.23879
	118.00			  9.86811			  -0.29494			 -0.21528
	118.25			  9.88828			  -0.37279			 -0.19078
	118.50			  9.92645			  -0.21709			 -0.07953
	118.75			  9.88121			  -0.13658			 -0.06802
	119.00			  9.74621			  -0.14325			 -0.02641
	119.25			  9.60340			  -0.12041			 -0.06685
	119.50			  9.73073			  -0.12874			 -0.16534
	119.75			  9.67581			  -0.10341			 -0.09283
	120.00			  9.76169			  -0.07357			 -0.07161
	120.25			  9.72612			  -0.12358			 -0.21412
	120.50			  9.80158			  -0.08124			 -0.34682
	120.75			  9.77591			  -0.09791			 -0.29048
	121.00			  9.81832			  -0.17959			 -0.12174
	121.25			  9.89081			  -0.10041			 -0.05394
	121.50			  9.86268			  -0.09741			 -0.10030
	121.75			  9.77754			  -0.12241			 -0.16433
	122.00			  9.76482			  -0.15542			 -0.09582
	122.25			  9.70454			  -0.09057			 -0.08768
	122.50			  9.72046			  -0.12391			 -0.16037
	122.75			  9.79912			  -0.25277			 -0.06194
	123.00			  9.65959			  -0.28044			 -0.01837
	123.25			  9.61754			  -0.28827			 -0.08829
	123.50			  9.59447			  -0.33911			 0.04232
	123.75			  9.69144			  -0.30577			 0.18240
	124.00			  9.67626			  -0.26944			 0.20508
	124.25			  9.70781			  -0.26093			 0.18345
	124.50			  9.76028			  -0.21626			 0.08849
	124.75			  9.74941			  -0.22059			 0.10414
	125.00			  9.77427			  -0.13391			 0.11831
	125.25			  9.68139			  -0.22459			 0.10623
	125.50			  9.77219			  -0.28660			 0.12746
	125.75			  9.69345			  -0.19142			 0.14145
	126.00			  9.70469			  -0.11207			 0.04787
	126.25			  9.64240			  -0.08507			 0.03422
	126.50			  9.68184			  -0.13208			 0.14576
	126.75			  9.62193			  -0.07374			 0.15535
	127.00			  9.60623			  0.02928			 0.13664
	127.25			  9.63258			  -0.05857			 0.13926
	127.50			  9.48106			  -0.08590			 0.22154
	127.75			  9.58495			  -0.18409			 0.26371
	128.00			  9.61382			  -0.20509			 0.17310
	128.25			  9.55473			  -0.16508			 0.09286
	128.50			  9.54729			  -0.26327			 0.07220
	128.75			  9.52474			  -0.29327			 -0.00298
	129.00			  9.44445			  -0.24610			 -0.03004
	129.25			  9.51462			  -0.28394			 0.05898
	129.50			  9.46097			  -0.35328			 -0.03520
	129.75			  9.50502			  -0.37262			 0.06426
	130.00			  9.49349			  -0.31811			 0.11346
	130.25			  9.39518			  -0.19742			 0.04748
	130.50			  9.37859			  -0.06457			 -0.05002
	130.75			  9.42346			  -0.03790			 -0.13809
	131.00			  9.43708			  -0.09307			 -0.15548
	131.25			  9.47101			  -0.09507			 -0.14321
	131.50			  9.48061			  -0.02073			 -0.14527
	131.75			  9.53137			  -0.06873			 -0.11970
	132.00			  9.63793			  -0.07640			 -0.07970
	132.25			  9.77992			  -0.08274			 -0.05868
	132.50			  9.70841			  -0.15475			 0.04166
	132.75			  9.83239			  -0.10624			 0.02343
	133.00			  9.98130			  -0.12674			 -0.01841
	133.25			  9.90688			  -0.13691			 0.10416
	133.50			  9.78729			  -0.14608			 0.04581
	133.75			  9.83544			  -0.17559			 0.11272
	134.00			  9.84891			  -0.15658			 0.12313
	134.25			  9.75477			  -0.05206			 0.04537
	134.50			  9.79578			  -0.17875			 0.01506
	134.75			  9.75112			  -0.11808			 0.07383
	135.00			  9.71205			  -0.01156			 0.08855
	135.25			  9.68876			  -0.08224			 0.01821
	135.50			  9.75648			  -0.00072			 -0.05146
	135.75			  9.78647			  0.09829			 0.01842
	136.00			  9.78558			  0.12847			 -0.02130
	136.25			  9.77531			  0.02828			 -0.00367
	136.50			  9.79027			  0.06696			 -0.02317
	136.75			  9.78112			  0.09863			 0.00976
	137.00			  9.75805			  0.11013			 0.00349
	137.25			  9.71347			  0.06779			 0.05742
	137.50			  9.67641			  0.09563			 0.03331
	137.75			  9.76616			  0.11263			 -0.03058
	138.00			  9.76817			  0.09129			 0.01819
	138.25			  9.78089			  0.23232			 -0.07374
	138.50			  9.92288			  0.18264			 -0.04901
	138.75			  9.93643			  0.08112			 -0.04229
	139.00			  9.97423			  -0.02806			 -0.14465
	139.25			  10.00065			  -0.07957			 -0.11987
	139.50			  9.98413			  0.00761			 -0.12947
	139.75			  9.99745			  -0.04206			 -0.10560
	140.00			  9.91559			  -0.03540			 0.01005
	140.25			  9.95979			  0.00511			 -0.00641
	140.50			  9.93442			  0.05645			 -0.08924
	140.75			  9.86126			  -0.08024			 -0.15504
	141.00			  9.85702			  -0.03673			 -0.10570
	141.25			  9.84467			  0.10446			 -0.12211
	141.50			  9.82279			  0.04178			 -0.10252
	141.75			  9.92943			  0.01811			 -0.13180
	142.00			  9.91968			  -0.08607			 -0.09658
	142.25			  9.92281			  -0.10074			 -0.14372
	142.50			  9.85873			  -0.00772			 -0.25832
	142.75			  9.96158			  0.04012			 -0.20402
	143.00			  9.93256			  -0.00372			 -0.18086
	143.25			  9.93174			  -0.08374			 -0.12529
	143.50			  9.89371			  -0.04773			 -0.07124
	143.75			  9.91924			  -0.13975			 -0.14572
	144.00			  9.94000			  0.03878			 -0.10314
	144.25			  9.88798			  -0.01489			 -0.06893
	144.50			  9.95302			  0.05762			 -0.04551
	144.75			  9.87235			  0.05212			 0.03354
	145.00			  9.88679			  0.00078			 -0.08469
	145.25			  10.01680			  -0.09741			 0.06150
	145.50			  9.98837			  -0.05973			 0.04383
	145.75			  9.92526			  -0.06373			 0.05587
	146.00			  9.95682			  -0.15108			 0.01757
	146.25			  10.03496			  -0.16025			 0.13670
	146.50			  10.12768			  -0.11724			 0.11245
	146.75			  10.03042			  -0.20109			 0.13023
	147.00			  10.01300			  -0.15525			 0.19415
	147.25			  10.02268			  -0.23310			 0.25340
	147.50			  9.93047			  -0.24826			 0.20253
	147.75			  9.85613			  -0.26310			 0.17393
	148.00			  9.92936			  -0.51564			 0.17359
	148.25			  9.88091			  -0.48447			 0.14184
	148.50			  10.03310			  -0.47180			 -0.01064
	148.75			  10.06458			  -0.55532			 0.00106
	149.00			  9.99559			  -0.47280			 0.11266
	149.25			  9.93538			  -0.51931			 0.14850
	149.50			  9.91909			  -0.49597			 0.03987
	149.75			  9.95563			  -0.42013			 0.08899
	150.00			  9.95570			  -0.29444			 0.10245
	150.25			  10.01330			  -0.26393			 -0.05505
	150.50			  9.96173			  -0.18875			 -0.08446
	150.75			  10.15016			  -0.26343			 -0.18383
	151.00			  10.21751			  -0.23876			 -0.19355
	151.25			  10.16556			  -0.17409			 -0.14791
	151.50			  10.13453			  -0.13825			 -0.11562
	151.75			  10.19094			  -0.13675			 -0.01527
	152.00			  10.21669			  -0.10741			 -0.05246
	152.25			  10.20947			  -0.10507			 -0.08396
	152.50			  10.27511			  -0.09224			 -0.13548
	152.75			  10.33836			  0.01445			 -0.09714
	153.00			  10.24571			  -0.01589			 -0.19453
	153.25			  10.22755			  0.03695			 -0.18596
	153.50			  10.25769			  0.20148			 -0.26613
	153.75			  10.32817			  0.03845			 -0.22621
	154.00			  10.30041			  -0.06507			 -0.14973
	154.25			  10.26893			  -0.01473			 -0.06596
	154.50			  10.26677			  -0.01839			 -0.08415
	154.75			  10.23164			  -0.11007			 -0.01033
	155.00			  10.23097			  -0.10657			 0.09142
	155.25			  10.20619			  -0.09424			 0.03432
	155.50			  10.20188			  0.11196			 -0.02344
	155.75			  10.21669			  0.26049			 -0.09269
	156.00			  10.17799			  0.28299			 -0.12706
	156.25			  10.11235			  0.23982			 -0.05712
	156.50			  9.95935			  0.26199			 -0.03330
	156.75			  9.94498			  0.28366			 -0.03289
	157.00			  10.13170			  0.10146			 0.01823
	157.25			  10.09382			  0.04545			 0.04391
	157.50			  10.03652			  0.14447			 0.00912
	157.75			  10.17003			  0.14964			 0.11730
	158.00			  10.11295			  0.23298			 0.03015
	158.25			  10.11421			  0.18481			 0.12858
	158.50			  10.16794			  0.15814			 0.17283
	158.75			  10.21021			  0.09963			 0.15339
	159.00			  10.14733			  0.11013			 0.11858
	159.25			  10.16348			  0.12296			 0.01271
	159.50			  10.21974			  0.08229			 0.01673
	159.75			  10.17196			  -0.01573			 0.15341
	160.00			  10.21996			  -0.08140			 0.17607
	160.25			  10.19518			  -0.10107			 0.19061
	160.50			  10.17107			  -0.19642			 0.28208
	160.75			  10.20575			  -0.12224			 0.26550
	161.00			  10.12538			  0.03528			 0.26755
	161.25			  10.22398			  -0.01056			 0.14842
	161.50			  10.15261			  0.00995			 0.07185
	161.75			  10.08526			  -0.00922			 0.07210
	162.00			  10.00787			  0.00661			 0.11181
	162.25			  9.99172			  -0.06740			 -0.00317
	162.50			  10.04292			  -0.03723			 -0.04792
	162.75			  10.07231			  -0.01039			 -0.06056
	163.00			  10.14755			  0.07562			 0.03785
	163.25			  10.09464			  0.05845			 -0.02723
	163.50			  10.13378			  0.01595			 -0.01942
	163.75			  10.11808			  -0.05890			 -0.10013
	164.00			  10.10766			  -0.07057			 0.02442
	164.25			  10.01568			  -0.05090			 0.03211
	164.50			  9.96344			  -0.02723			 -0.02552
	164.75			  10.08050			  0.02261			 -0.11081
	165.00			  10.13371			  -0.05023			 -0.26531
	165.25			  10.18521			  -0.06923			 -0.21775