--------------TurbSim v2.00.* User Time Series Input File-----------------------
     Time series input from low-res turbsim run
--------------------------------------------------------------------------------
          3 nComp - Number of velocity components in the file
          1 nPoints - Number of time series points contained in this file (-)
          1 RefPtID - Index of the reference point (1-nPoints)
     Pointyi Pointzi ! nPoints listed in order of increasing height
       (m)     (m)
       -2.42341   94.00000
--------Time Series-------------------------------------------------------------
Elapsed Time         Point01u             Point01v           Point01w
         (s)            (m/s)                (m/s)              (m/s)
	0.00			  10.17676			  -0.19284			 0.12875
	0.25			  10.29297			  -0.17194			 0.16628
	0.50			  10.29200			  -0.28579			 0.18802
	0.75			  10.32478			  -0.24308			 0.16333
	1.00			  10.36803			  -0.23079			 -0.03374
	1.25			  10.43156			  -0.34061			 -0.26983
	1.50			  10.39090			  -0.36041			 -0.09802
	1.75			  10.41762			  -0.45189			 -0.04859
	2.00			  10.31103			  -0.47701			 -0.18512
	2.25			  10.27941			  -0.56409			 -0.16894
	2.50			  10.26730			  -0.49369			 -0.10308
	2.75			  10.29402			  -0.41797			 -0.04546
	3.00			  10.06508			  -0.54209			 -0.25312
	3.25			  9.93975			  -0.48837			 -0.26688
	3.50			  9.94196			  -0.52742			 -0.02588
	3.75			  9.91831			  -0.37177			 -0.10594
	4.00			  9.90620			  -0.16809			 -0.16583
	4.25			  9.99261			  -0.05370			 -0.11137
	4.50			  10.02269			  -0.04728			 -0.21022
	4.75			  10.07863			  -0.03023			 -0.09491
	5.00			  10.06354			  -0.08743			 -0.05313
	5.25			  10.24049			  -0.08120			 -0.18922
	5.50			  10.19618			  -0.20183			 0.05867
	5.75			  10.23088			  -0.15856			 0.17613
	6.00			  10.15081			  0.08435			 -0.01085
	6.25			  10.20781			  0.04420			 -0.13517
	6.50			  10.11506			  0.11130			 -0.12781
	6.75			  10.02154			  0.08820			 -0.11324
	7.00			  10.17369			  -0.15710			 0.01540
	7.25			  10.16004			  -0.15765			 0.08915
	7.50			  10.31517			  -0.04691			 0.05339
	7.75			  10.22434			  -0.13271			 0.11080
	8.00			  10.35150			  -0.11841			 0.26836
	8.25			  10.24962			  -0.10173			 0.19986
	8.50			  10.07796			  -0.01721			 0.19411
	8.75			  10.30200			  -0.01886			 0.03954
	9.00			  10.17398			  -0.22383			 0.11291
	9.25			  10.05691			  -0.25078			 0.09778
	9.50			  10.04442			  -0.20659			 0.00512
	9.75			  10.02298			  -0.35399			 -0.01601
	10.00			  10.17744			  -0.27516			 -0.01945
	10.25			  10.17734			  -0.38644			 0.03140
	10.50			  10.07844			  -0.55345			 -0.13265
	10.75			  9.86209			  -0.27461			 -0.09739
	11.00			  9.83902			  -0.41229			 -0.06664
	11.25			  9.67082			  -0.60350			 -0.05729
	11.50			  9.50147			  -0.42091			 -0.16313
	11.75			  9.52742			  -0.27461			 -0.15968
	12.00			  9.38873			  -0.47774			 -0.16039
	12.25			  9.34010			  -0.73330			 -0.44740
	12.50			  9.36364			  -0.63632			 -0.13107
	12.75			  9.51570			  -0.49002			 0.05094
	13.00			  9.58374			  -0.52211			 -0.04496
	13.25			  9.50455			  -0.52834			 -0.25331
	13.50			  9.54415			  -0.61395			 -0.37632
	13.75			  9.65785			  -0.58352			 -0.30310
	14.00			  9.57346			  -0.59342			 -0.29245
	14.25			  9.74310			  -0.44382			 -0.33864
	14.50			  9.88525			  -0.47517			 -0.15955
	14.75			  10.10872			  -0.54025			 -0.11436
	15.00			  9.88775			  -0.30706			 -0.00113
	15.25			  9.79298			  -0.20439			 0.22751
	15.50			  9.86776			  -0.07533			 0.17165
	15.75			  9.84267			  -0.11365			 0.10309
	16.00			  9.84806			  -0.12355			 0.12400
	16.25			  9.78424			  -0.05388			 0.28143
	16.50			  9.89188			  -0.04031			 0.13201
	16.75			  9.83941			  -0.03060			 0.04733
	17.00			  9.73791			  -0.15673			 0.12341
	17.25			  9.93139			  -0.20164			 0.11201
	17.50			  9.96282			  -0.00676			 0.30976
	17.75			  9.99857			  -0.06873			 0.29731
	18.00			  9.96310			  -0.15398			 0.50398
	18.25			  9.89457			  -0.32283			 0.52641
	18.50			  9.76415			  -0.46656			 0.36236
	18.75			  9.76155			  -0.27296			 0.22890
	19.00			  9.74637			  -0.21301			 0.24938
	19.25			  9.76434			  -0.19449			 0.25668
	19.50			  9.70389			  -0.12281			 0.30082
	19.75			  9.55895			  -0.28048			 0.16413
	20.00			  9.70177			  -0.22474			 0.00686
	20.25			  9.80586			  -0.25554			 0.03413
	20.50			  9.95349			  -0.32008			 -0.08584
	20.75			  9.97204			  -0.18844			 0.06986
	21.00			  9.94311			  -0.00695			 -0.10016
	21.25			  10.12227			  -0.07148			 -0.30009
	21.50			  10.04269			  -0.04783			 -0.34675
	21.75			  9.98531			  0.01780			 -0.27573
	22.00			  10.07825			  0.16575			 -0.27191
	22.25			  10.01674			  0.22111			 -0.13768
	22.50			  9.99626			  0.06162			 -0.17832
	22.75			  9.96849			  -0.02345			 -0.37660
	23.00			  9.84815			  -0.08065			 -0.21960
	23.25			  9.91822			  -0.23978			 -0.05791
	23.50			  9.75252			  -0.38956			 -0.05157
	23.75			  9.66112			  -0.21136			 -0.07326
	24.00			  9.74214			  -0.23959			 -0.07214
	24.25			  9.79702			  -0.37287			 -0.06332
	24.50			  9.95561			  -0.47866			 0.08265
	24.75			  9.89015			  -0.64640			 0.12537
	25.00			  9.93321			  -0.65850			 -0.09103
	25.25			  10.01510			  -0.52247			 0.15236
	25.50			  10.09910			  -0.49442			 0.08461
	25.75			  9.86363			  -0.53384			 -0.03179
	26.00			  9.77290			  -0.53934			 -0.23709
	26.25			  9.86689			  -0.53219			 -0.31873
	26.50			  9.97618			  -0.48031			 -0.48877
	26.75			  9.81557			  -0.57307			 -0.50719
	27.00			  9.87900			  -0.65649			 -0.46547
	27.25			  9.94503			  -0.68692			 -0.28950
	27.50			  10.00386			  -0.85540			 -0.10473
	27.75			  10.06575			  -0.75255			 -0.09199
	28.00			  10.14370			  -0.68747			 -0.04434
	28.25			  10.27653			  -0.64329			 -0.07093
	28.50			  10.33650			  -0.66510			 -0.13318
	28.75			  10.20050			  -0.80388			 -0.23252
	29.00			  10.18801			  -0.73110			 -0.07705
	29.25			  10.15475			  -0.66822			 -0.01952
	29.50			  10.07133			  -0.76795			 -0.08556
	29.75			  10.15668			  -0.76612			 -0.22066
	30.00			  10.14370			  -0.76300			 -0.21615
	30.25			  10.21867			  -0.65227			 -0.31801
	30.50			  10.07834			  -0.66547			 -0.17220
	30.75			  10.04221			  -0.48617			 -0.20528
	31.00			  10.06633			  -0.40202			 -0.16105
	31.25			  10.05537			  -0.44236			 -0.14017
	31.50			  9.91476			  -0.51496			 -0.01389
	31.75			  10.07777			  -0.44712			 0.05237
	32.00			  10.10814			  -0.51954			 -0.10678
	32.25			  10.12813			  -0.48507			 -0.23793
	32.50			  9.97791			  -0.61304			 -0.11470
	32.75			  10.11083			  -0.42237			 -0.13051
	33.00			  10.25942			  -0.29423			 -0.25936
	33.25			  10.22588			  -0.35747			 -0.11227
	33.50			  10.31651			  -0.25353			 0.10415
	33.75			  10.42887			  -0.14903			 -0.09093
	34.00			  10.43492			  -0.14610			 -0.14085
	34.25			  10.42829			  -0.20513			 -0.09006
	34.50			  10.35169			  -0.16205			 -0.01719
	34.75			  10.31642			  -0.05901			 0.05038
	35.00			  10.30402			  -0.07771			 -0.11532
	35.25			  10.14995			  -0.24619			 -0.07239
	35.50			  10.13322			  -0.38827			 -0.12184
	35.75			  10.14726			  -0.37416			 -0.07509
	36.00			  10.14014			  -0.43576			 -0.06869
	36.25			  10.04624			  -0.57179			 0.05178
	36.50			  9.98531			  -0.58297			 0.17212
	36.75			  9.88756			  -0.66254			 0.25447
	37.00			  9.83306			  -0.61029			 0.07445
	37.25			  9.91889			  -0.60809			 0.03839
	37.50			  9.85161			  -0.51587			 -0.01194
	37.75			  9.95599			  -0.39011			 0.06501
	38.00			  10.19483			  -0.32539			 0.10822
	38.25			  10.10314			  -0.23703			 0.15708
	38.50			  10.22078			  -0.44841			 -0.00433
	38.75			  10.18090			  -0.48984			 -0.07767
	39.00			  10.01481			  -0.33383			 -0.07049
	39.25			  10.13976			  -0.17121			 -0.06027
	39.50			  10.27980			  0.06748			 -0.13576
	39.75			  10.32632			  -0.06360			 -0.05773
	40.00			  10.28393			  0.07078			 -0.16176
	40.25			  10.29287			  0.03155			 -0.18605
	40.50			  10.32612			  0.07647			 -0.20805
	40.75			  10.26826			  0.18903			 -0.15517
	41.00			  10.15101			  0.09040			 -0.06117
	41.25			  9.99915			  0.00240			 -0.10581
	41.50			  9.99203			  0.05978			 -0.10215
	41.75			  10.06787			  -0.10228			 -0.18360
	42.00			  10.28691			  -0.21081			 -0.16487
	42.25			  10.17417			  -0.39231			 -0.05095
	42.50			  10.01491			  -0.36646			 -0.05835
	42.75			  9.97368			  -0.33016			 -0.15859
	43.00			  10.00020			  -0.34483			 -0.04679
	43.25			  9.92514			  -0.18624			 -0.01147
	43.50			  10.06941			  -0.10815			 -0.02265
	43.75			  9.88814			  -0.04123			 0.04823
	44.00			  9.79933			  -0.07753			 0.08856
	44.25			  9.85248			  -0.12996			 -0.22818
	44.50			  9.84229			  -0.03500			 -0.30146
	44.75			  9.96185			  -0.30119			 -0.23165
	45.00			  9.99655			  -0.33273			 -0.21525
	45.25			  9.84373			  -0.30156			 -0.18046
	45.50			  9.83239			  -0.14555			 -0.16288
	45.75			  9.81903			  -0.13033			 -0.16257
	46.00			  9.78318			  -0.04490			 -0.18232
	46.25			  9.96522			  -0.13895			 -0.12576
	46.50			  9.86074			  -0.08523			 -0.22796
	46.75			  9.79346			  -0.02748			 -0.20559
	47.00			  9.59768			  -0.05736			 -0.20022
	47.25			  9.53521			  -0.16901			 -0.20627
	47.50			  9.63949			  -0.15325			 -0.22423
	47.75			  9.71580			  -0.11530			 -0.23411
	48.00			  9.84652			  -0.10393			 -0.09485
	48.25			  9.80452			  -0.15911			 -0.05462
	48.50			  9.65160			  -0.25151			 -0.18177
	48.75			  9.74445			  -0.26819			 -0.28599
	49.00			  9.79548			  -0.14115			 -0.50443
	49.25			  9.84825			  -0.01831			 -0.42217
	49.50			  9.89160			  0.11607			 -0.46818
	49.75			  9.82335			  -0.03536			 -0.50632
	50.00			  9.68063			  -0.16864			 -0.52826
	50.25			  9.72811			  -0.23758			 -0.51378
	50.50			  9.82047			  -0.18716			 -0.40456
	50.75			  9.88650			  -0.12153			 -0.24706
	51.00			  9.62498			  -0.05535			 -0.18465
	51.25			  9.42842			  0.01963			 -0.19503
	51.50			  9.44150			  0.05832			 -0.24921
	51.75			  9.33337			  -0.02675			 -0.15778
	52.00			  9.30252			  -0.04801			 -0.07264
	52.25			  9.30319			  -0.15233			 -0.22184
	52.50			  9.38402			  0.10708			 -0.29928
	52.75			  9.35201			  0.33661			 -0.23675
	53.00			  9.50166			  0.24110			 -0.29608
	53.25			  9.64074			  -0.01006			 -0.12225
	53.50			  9.58374			  -0.08303			 -0.10625
	53.75			  9.73320			  -0.07771			 -0.11296
	54.00			  9.58278			  -0.33438			 -0.09323
	54.25			  9.58509			  -0.37947			 -0.08969
	54.50			  9.65698			  -0.34006			 -0.06903
	54.75			  9.44890			  -0.17818			 0.10480
	55.00			  9.36778			  -0.20568			 0.05081
	55.25			  9.28752			  -0.06231			 -0.02620
	55.50			  9.46062			  0.07555			 0.05566
	55.75			  9.46456			  0.09700			 0.02658
	56.00			  9.34135			  -0.05736			 -0.22538
	56.25			  9.33270			  -0.01886			 -0.21587
	56.50			  9.36412			  0.05648			 -0.05835
	56.75			  9.40747			  0.19343			 -0.03256
	57.00			  9.47648			  0.16318			 -0.18919
	57.25			  9.35596			  0.13605			 -0.23091
	57.50			  9.31443			  0.14833			 -0.09752
	57.75			  9.45822			  0.32690			 -0.06767
	58.00			  9.32030			  0.33313			 -0.00346
	58.25			  9.30031			  0.34266			 0.08141
	58.50			  9.31318			  0.45119			 -0.01141
	58.75			  9.49580			  0.37951			 -0.10802
	59.00			  9.48215			  0.53296			 0.07933
	59.25			  9.32212			  0.73957			 0.16417
	59.50			  9.35221			  0.65139			 -0.01281
	59.75			  9.16507			  0.46971			 -0.06186
	60.00			  9.28368			  0.48566			 0.09005
	60.25			  9.20044			  0.55533			 -0.03346
	60.50			  9.21813			  0.34266			 -0.15424
	60.75			  9.23053			  0.38226			 0.13444
	61.00			  9.27858			  0.18262			 0.21738
	61.25			  9.36960			  0.05648			 0.06796
	61.50			  9.42737			  -0.06213			 0.06448
	61.75			  9.45293			  0.16428			 0.01326
	62.00			  9.43554			  0.33148			 0.01360
	62.25			  9.18343			  0.31571			 0.19523
	62.50			  9.07598			  0.00955			 0.29001
	62.75			  8.98765			  0.00112			 0.23241
	63.00			  8.93950			  0.04200			 0.05693
	63.25			  9.06310			  -0.06341			 0.04441
	63.50			  9.03263			  -0.06873			 -0.05294
	63.75			  9.03753			  -0.04086			 -0.01010
	64.00			  8.95737			  -0.08340			 -0.14887
	64.25			  9.14095			  -0.09055			 -0.03222
	64.50			  9.14441			  -0.18111			 0.06939
	64.75			  9.09558			  -0.09605			 0.11956
	65.00			  9.10068			  -0.04196			 0.20989
	65.25			  9.24591			  0.02128			 0.11328
	65.50			  9.40180			  -0.09495			 0.10393
	65.75			  9.45726			  -0.11805			 0.04699
	66.00			  9.27560			  -0.15618			 0.09343
	66.25			  9.19631			  -0.14151			 -0.04055
	66.50			  9.12538			  -0.11310			 -0.05291
	66.75			  9.08597			  0.01688			 0.23450
	67.00			  9.30242			  -0.03885			 0.16109
	67.25			  9.37028			  -0.15966			 0.20502
	67.50			  9.48898			  -0.10888			 0.26534
	67.75			  9.54472			  -0.08541			 0.24673
	68.00			  9.54568			  -0.25903			 0.12711
	68.25			  9.41103			  -0.27754			 -0.02054
	68.50			  9.52608			  -0.28653			 -0.06425
	68.75			  9.58701			  -0.33933			 -0.05232
	69.00			  9.64074			  -0.35399			 -0.03989
	69.25			  9.54559			  -0.32338			 -0.05940
	69.50			  9.54674			  -0.29753			 -0.40704
	69.75			  9.67361			  -0.31256			 -0.44047
	70.00			  9.83652			  -0.46087			 -0.44174
	70.25			  9.62478			  -0.31256			 -0.39083
	70.50			  9.51166			  -0.61487			 -0.26033
	70.75			  9.41151			  -0.76813			 -0.27946
	71.00			  9.51156			  -0.64934			 -0.26579
	71.25			  9.54501			  -0.72083			 -0.20913
	71.50			  9.45486			  -0.80388			 -0.03657
	71.75			  9.60383			  -0.53732			 -0.11429
	72.00			  9.63382			  -0.46252			 -0.17241
	72.25			  9.79798			  -0.66107			 -0.14707
	72.50			  9.67861			  -0.65520			 -0.13390
	72.75			  9.72253			  -0.60827			 -0.24433
	73.00			  9.96983			  -0.52412			 -0.37057
	73.25			  9.82489			  -0.49479			 -0.39216
	73.50			  9.63074			  -0.53274			 -0.45777
	73.75			  9.65083			  -0.48672			 -0.44131
	74.00			  9.80682			  -0.40899			 -0.56820
	74.25			  9.75973			  -0.29991			 -0.47557
	74.50			  9.75377			  -0.44547			 -0.44708
	74.75			  9.74714			  -0.52412			 -0.41841
	75.00			  9.64410			  -0.67665			 -0.29201
	75.25			  9.58855			  -0.42879			 -0.22656
	75.50			  9.69562			  -0.23904			 -0.37663
	75.75			  9.73724			  -0.29624			 -0.30031
	76.00			  9.71042			  -0.29588			 -0.36660
	76.25			  9.65948			  -0.08321			 -0.36594
	76.50			  9.48244			  0.02293			 -0.31332
	76.75			  9.58817			  0.09480			 -0.22637
	77.00			  9.65304			  -0.00805			 -0.10404
	77.25			  9.71657			  -0.13308			 0.04795
	77.50			  9.55866			  -0.14316			 0.14217
	77.75			  9.52338			  -0.19614			 0.09440
	78.00			  9.51992			  -0.08468			 0.02733
	78.25			  9.38921			  -0.04160			 -0.01579
	78.50			  9.44034			  -0.07166			 0.04935
	78.75			  9.38959			  -0.03316			 0.10887
	79.00			  9.36220			  -0.04031			 0.14932
	79.25			  9.33452			  -0.29056			 0.34984
	79.50			  9.20140			  -0.28359			 0.30327
	79.75			  9.22687			  -0.36847			 0.26093
	80.00			  9.21717			  -0.31806			 0.06259
	80.25			  9.25513			  -0.40936			 0.11204
	80.50			  9.24158			  -0.31568			 0.21819
	80.75			  9.14008			  -0.24399			 0.16044
	81.00			  9.15546			  -0.14665			 -0.07180
	81.25			  9.13835			  -0.10668			 -0.02691
	81.50			  9.08991			  -0.01263			 0.08675
	81.75			  9.23524			  -0.17763			 -0.02064
	82.00			  9.30338			  -0.27479			 -0.15763
	82.25			  9.18064			  -0.23959			 -0.02794
	82.50			  9.09837			  -0.19926			 -0.00647
	82.75			  9.18295			  -0.11126			 -0.10684
	83.00			  9.26580			  -0.06598			 -0.13076
	83.25			  9.42400			  -0.06195			 -0.05751
	83.50			  9.45293			  -0.29679			 -0.32395
	83.75			  9.28714			  -0.19944			 -0.28114
	84.00			  9.27608			  -0.15123			 -0.11926
	84.25			  9.41257			  -0.18386			 -0.15067
	84.50			  9.45495			  -0.17506			 -0.02682
	84.75			  9.38738			  -0.27424			 -0.15635
	85.00			  9.38777			  -0.26141			 -0.03020
	85.25			  9.40987			  -0.29038			 -0.02576
	85.50			  9.41622			  -0.28103			 -0.04856
	85.75			  9.59614			  -0.17249			 0.02416
	86.00			  9.66227			  -0.05461			 -0.11541
	86.25			  9.56971			  -0.23024			 -0.10532
	86.50			  9.48273			  -0.32723			 -0.19031
	86.75			  9.57154			  -0.25884			 -0.12051
	87.00			  9.65170			  -0.31476			 -0.12284
	87.25			  9.72801			  -0.21136			 0.04920
	87.50			  9.74819			  -0.12941			 0.09933
	87.75			  9.59038			  -0.14555			 0.05156
	88.00			  9.49369			  -0.10210			 0.09334
	88.25			  9.32943			  0.06198			 0.05336
	88.50			  9.38527			  0.01084			 0.07976
	88.75			  9.28060			  -0.11511			 0.13944
	89.00			  9.14825			  -0.03280			 0.20930
	89.25			  9.19381			  -0.05883			 0.12503
	89.50			  9.06877			  -0.14793			 0.23599
	89.75			  9.00226			  0.01322			 0.25413
	90.00			  9.15383			  -0.20348			 0.25475
	90.25			  9.14720			  -0.13106			 0.32924
	90.50			  9.25138			  -0.11108			 0.19694
	90.75			  9.35980			  -0.17451			 0.07119
	91.00			  9.37835			  -0.48617			 0.11567
	91.25			  9.32972			  -0.53915			 -0.06329
	91.50			  9.39046			  -0.45592			 -0.14672
	91.75			  9.52521			  -0.49149			 0.02723
	92.00			  9.43650			  -0.58114			 0.15491
	92.25			  9.39382			  -0.61340			 0.24453
	92.50			  9.18257			  -0.81250			 0.24969
	92.75			  9.27522			  -0.48287			 0.34552
	93.00			  9.32395			  -0.21319			 0.33194
	93.25			  9.39392			  -0.24968			 0.18712
	93.50			  9.28512			  -0.41284			 0.20915
	93.75			  9.25648			  -0.33658			 0.11372
	94.00			  9.36018			  -0.43301			 0.15264
	94.25			  9.31328			  -0.39744			 0.19796
	94.50			  9.29223			  -0.19101			 0.11303
	94.75			  9.37893			  -0.17268			 -0.13094
	95.00			  9.30155			  -0.01813			 -0.10684
	95.25			  9.36076			  -0.09990			 -0.08804
	95.50			  9.43390			  -0.24289			 -0.02731
	95.75			  9.34106			  -0.40752			 -0.02185
	96.00			  9.30896			  -0.47554			 -0.17922
	96.25			  9.24456			  -0.40276			 -0.10460
	96.50			  9.44649			  -0.32209			 -0.17384
	96.75			  9.52550			  -0.15453			 -0.13787
	97.00			  9.44121			  -0.11108			 -0.13874
	97.25			  9.40017			  0.11955			 -0.15356
	97.50			  9.32366			  0.09865			 -0.08733
	97.75			  9.24744			  -0.06983			 -0.03620
	98.00			  9.32107			  -0.03701			 -0.17586
	98.25			  9.29108			  -0.07001			 -0.13060
	98.50			  9.34144			  -0.03371			 -0.12989
	98.75			  9.34000			  -0.09366			 -0.11513
	99.00			  9.27272			  -0.17799			 -0.03691
	99.25			  9.17959			  -0.38112			 -0.08165
	99.50			  9.36903			  -0.44456			 -0.09146
	99.75			  9.42439			  -0.41889			 0.02627
	100.00			  9.34096			  -0.26874			 -0.17524
	100.25			  9.25821			  -0.11878			 -0.19015
	100.50			  9.46956			  -0.09531			 -0.04356
	100.75			  9.48696			  -0.19193			 -0.18599
	101.00			  9.58288			  -0.05608			 -0.26138
	101.25			  9.56942			  -0.04911			 -0.35293
	101.50			  9.57759			  -0.14096			 -0.40490
	101.75			  9.48273			  -0.01300			 -0.32438
	102.00			  9.53050			  -0.04618			 -0.32991
	102.25			  9.48225			  -0.07680			 -0.11783
	102.50			  9.32866			  0.12120			 -0.03458
	102.75			  9.30309			  0.36338			 -0.12256
	103.00			  9.46908			  0.16227			 -0.15173
	103.25			  9.64939			  0.14485			 -0.15825
	103.50			  9.68908			  -0.01538			 -0.18956
	103.75			  9.68370			  0.00955			 -0.17745
	104.00			  9.55904			  -0.15893			 -0.19279
	104.25			  9.64035			  -0.18679			 -0.05505
	104.50			  9.64237			  -0.07496			 -0.10283
	104.75			  9.62901			  0.10598			 -0.18891
	105.00			  9.69302			  -0.04930			 -0.07469
	105.25			  9.66707			  0.13330			 -0.12554
	105.50			  9.68707			  0.01652			 -0.19394
	105.75			  9.68947			  -0.04435			 -0.26340
	106.00			  9.73522			  -0.09531			 -0.08379
	106.25			  9.72618			  -0.06360			 -0.18114
	106.50			  9.64132			  0.11772			 -0.05642
	106.75			  9.75473			  0.00222			 0.00394
	107.00			  9.72936			  0.09040			 0.12325
	107.25			  9.71234			  -0.06305			 0.00695
	107.50			  9.76098			  -0.02070			 0.07722
	107.75			  9.54674			  0.01487			 -0.14421
	108.00			  9.46476			  -0.15911			 -0.34047
	108.25			  9.54232			  -0.29221			 -0.38524
	108.50			  9.51810			  -0.14646			 -0.18888
	108.75			  9.43871			  -0.08798			 -0.20283
	109.00			  9.47437			  0.03613			 -0.07056
	109.25			  9.29646			  0.20865			 0.11362
	109.50			  9.26753			  0.08032			 0.11940
	109.75			  9.38210			  0.00974			 0.16103
	110.00			  9.42842			  0.12890			 0.18995
	110.25			  9.47446			  0.36961			 0.02376
	110.50			  9.60431			  0.33845			 0.00611
	110.75			  9.70533			  0.29371			 0.05050
	111.00			  9.55837			  0.35293			 0.13319
	111.25			  9.65785			  0.25081			 -0.04577
	111.50			  9.67659			  -0.01666			 0.08756
	111.75			  9.45985			  0.05832			 0.10657
	112.00			  9.28858			  0.01743			 0.13481
	112.25			  9.40055			  0.11002			 0.09648
	112.50			  9.35855			  0.15237			 -0.03943
	112.75			  9.19814			  0.08362			 0.00307
	113.00			  9.28310			  0.14687			 -0.21535
	113.25			  9.20131			  0.04933			 0.01947
	113.50			  9.21361			  0.09077			 0.09564
	113.75			  9.35624			  0.04695			 0.02366
	114.00			  9.18641			  0.18592			 0.10073
	114.25			  9.06867			  0.17235			 0.07899
	114.50			  9.03744			  0.12890			 0.26279
	114.75			  9.09039			  0.04695			 0.12704
	115.00			  9.12711			  0.09975			 -0.07186
	115.25			  9.09059			  0.01817			 -0.04980
	115.50			  9.40468			  0.14888			 -0.07577
	115.75			  9.25013			  0.07702			 -0.12458
	116.00			  9.15162			  -0.07203			 -0.05071
	116.25			  9.11231			  -0.10961			 0.09520
	116.50			  9.21947			  -0.27846			 -0.01678
	116.75			  9.10000			  -0.27131			 -0.06322
	117.00			  8.96410			  -0.21723			 -0.12299
	117.25			  9.03061			  -0.01978			 -0.17748
	117.50			  9.13172			  0.10067			 -0.06543
	117.75			  9.12624			  0.17015			 0.03519
	118.00			  8.99918			  0.24495			 0.15037
	118.25			  8.95305			  0.05355			 0.18796
	118.50			  8.96516			  -0.21668			 0.05296
	118.75			  8.90489			  -0.02088			 0.00297
	119.00			  8.66855			  0.09168			 -0.05263
	119.25			  8.83483			  0.00057			 0.03783
	119.50			  9.03647			  0.06858			 -0.01734
	119.75			  9.12269			  -0.19413			 -0.05052
	120.00			  9.17401			  -0.11383			 0.11344
	120.25			  9.15114			  -0.05553			 0.16196
	120.50			  9.12999			  -0.02510			 0.04901
	120.75			  8.99611			  0.00607			 -0.14940
	121.00			  9.15200			  -0.06818			 -0.19404
	121.25			  9.11904			  0.13055			 -0.03250
	121.50			  8.97198			  0.03338			 -0.08056
	121.75			  9.13413			  0.04548			 -0.07354
	122.00			  8.94824			  -0.06928			 -0.14247
	122.25			  8.93075			  -0.14243			 -0.18543
	122.50			  8.91739			  0.02898			 -0.14011
	122.75			  8.92700			  -0.07533			 -0.03042
	123.00			  8.92863			  0.18702			 0.10906
	123.25			  8.92210			  0.26383			 -0.02461
	123.50			  8.85444			  0.36210			 -0.17086
	123.75			  8.82993			  0.33056			 -0.15822
	124.00			  8.86347			  0.48603			 0.04799
	124.25			  8.94074			  0.53314			 0.04954
	124.50			  9.05137			  0.30911			 0.02410
	124.75			  9.10866			  0.39748			 0.12186
	125.00			  9.27138			  0.48878			 -0.10901
	125.25			  9.34173			  0.52911			 -0.23367
	125.50			  9.53117			  0.64057			 -0.12110
	125.75			  9.40420			  0.48529			 -0.05092
	126.00			  9.31549			  0.56962			 0.31846
	126.25			  9.29800			  0.53406			 0.15152
	126.50			  9.23351			  0.64534			 0.08461
	126.75			  9.22351			  0.61912			 0.08812
	127.00			  9.36528			  0.72656			 0.11859
	127.25			  9.31482			  0.77734			 0.13121
	127.50			  9.14229			  0.74599			 0.11188
	127.75			  9.29069			  0.63379			 0.08256
	128.00			  9.35701			  0.68439			 0.14534
	128.25			  9.31597			  0.68769			 0.09070
	128.50			  9.29127			  0.46146			 0.04643
	128.75			  9.42372			  0.46036			 -0.00078
	129.00			  9.47744			  0.49758			 -0.07907
	129.25			  9.62748			  0.58649			 -0.08727
	129.50			  9.71254			  0.64479			 -0.22858
	129.75			  9.69418			  0.52838			 -0.23892
	130.00			  9.85882			  0.46348			 -0.11554
	130.25			  9.78501			  0.34340			 -0.11765
	130.50			  9.62296			  0.65249			 -0.07695
	130.75			  9.53521			  0.48401			 -0.22774
	131.00			  9.55712			  0.48071			 -0.13014
	131.25			  9.58778			  0.43249			 -0.04549
	131.50			  9.50070			  0.49996			 0.06330
	131.75			  9.49023			  0.50069			 -0.04313
	132.00			  9.54261			  0.43433			 -0.05953
	132.25			  9.45918			  0.32690			 -0.07239
	132.50			  9.48465			  0.47448			 -0.13741
	132.75			  9.49715			  0.45559			 -0.12237
	133.00			  9.51127			  0.15402			 -0.01101
	133.25			  9.75925			  0.25430			 0.00658
	133.50			  9.58874			  0.03815			 -0.11417
	133.75			  9.57750			  0.17235			 0.07638
	134.00			  9.55087			  0.05740			 0.15280
	134.25			  9.61777			  -0.03811			 0.17460
	134.50			  9.72388			  0.02312			 0.18743
	134.75			  9.69850			  0.10892			 0.02556
	135.00			  9.71532			  -0.01116			 -0.05279
	135.25			  9.83104			  0.01065			 -0.07170
	135.50			  9.75627			  -0.04471			 -0.01737
	135.75			  9.71657			  -0.00365			 -0.10612
	136.00			  9.60950			  0.03723			 -0.19745
	136.25			  9.45764			  -0.13968			 -0.09301
	136.50			  9.44150			  -0.21411			 0.00614
	136.75			  9.47619			  -0.27736			 -0.00840
	137.00			  9.36374			  -0.31586			 0.09728
	137.25			  9.36970			  -0.34959			 0.13301
	137.50			  9.28454			  -0.35986			 0.18666
	137.75			  9.45745			  -0.13693			 0.17395
	138.00			  9.48926			  -0.11053			 0.00474
	138.25			  9.44678			  -0.05021			 0.08331
	138.50			  9.38479			  -0.21466			 0.11648
	138.75			  9.20669			  -0.19211			 0.21934
	139.00			  9.14431			  -0.33529			 0.13894
	139.25			  9.37210			  -0.28066			 0.12801
	139.50			  9.41276			  -0.21851			 0.23679
	139.75			  9.55087			  -0.04160			 0.16162
	140.00			  9.58778			  -0.03885			 0.15143
	140.25			  9.54578			  -0.03225			 0.12136
	140.50			  9.62450			  -0.04618			 -0.09196
	140.75			  9.51848			  0.03210			 -0.11538
	141.00			  9.53415			  -0.18588			 -0.00489
	141.25			  9.54530			  -0.11071			 -0.09944
	141.50			  9.54664			  0.01212			 -0.14374
	141.75			  9.74800			  -0.07075			 -0.12197
	142.00			  9.72301			  -0.04655			 -0.20087
	142.25			  9.68889			  0.01029			 -0.18590
	142.50			  9.77059			  0.04017			 0.12201
	142.75			  9.82951			  0.02403			 0.31194
	143.00			  9.95618			  -0.04600			 0.19107
	143.25			  9.99386			  -0.09678			 0.39212
	143.50			  9.95638			  0.08600			 0.20787
	143.75			  9.88996			  0.24275			 -0.02604
	144.00			  9.96483			  0.10672			 -0.08059
	144.25			  10.03173			  -0.01226			 0.12270
	144.50			  9.95907			  -0.27956			 -0.03825
	144.75			  9.74541			  -0.02656			 0.05001
	145.00			  9.85075			  -0.18111			 0.31452
	145.25			  9.86526			  -0.39377			 0.14742
	145.50			  9.78798			  -0.20183			 0.13565
	145.75			  9.69197			  -0.14096			 0.17662
	146.00			  9.61306			  0.08087			 0.19063
	146.25			  9.63142			  0.17162			 -0.13719
	146.50			  9.70129			  0.28913			 -0.10233
	146.75			  9.64737			  0.11478			 0.01779
	147.00			  9.81865			  0.02623			 -0.01464
	147.25			  9.91918			  0.03118			 0.04544
	147.50			  9.90697			  -0.06983			 0.09614
	147.75			  9.96916			  -0.24876			 0.07343
	148.00			  9.80951			  -0.14041			 0.07911
	148.25			  9.84412			  -0.06433			 -0.13890
	148.50			  9.92985			  -0.02968			 0.02279
	148.75			  9.74185			  -0.12923			 0.11552
	149.00			  9.79606			  -0.23226			 0.16236
	149.25			  9.84700			  -0.09641			 0.03540
	149.50			  9.97579			  -0.17891			 0.00108
	149.75			  10.04240			  -0.18203			 0.03941
	150.00			  9.88823			  -0.25389			 0.04267
	150.25			  9.91380			  -0.38387			 0.15798
	150.50			  10.02481			  -0.35986			 0.19330
	150.75			  9.93216			  -0.29111			 0.05094
	151.00			  9.90563			  -0.32154			 0.01413
	151.25			  9.89976			  -0.53640			 -0.00364
	151.50			  9.98531			  -0.43686			 0.16364
	151.75			  9.82883			  -0.63632			 0.22682
	152.00			  9.87535			  -0.51771			 0.29566
	152.25			  9.85863			  -0.48379			 0.14354
	152.50			  9.69475			  -0.47077			 0.05529
	152.75			  9.85161			  -0.36994			 0.05995
	153.00			  9.71888			  -0.38791			 0.16559
	153.25			  9.73743			  -0.68307			 0.21433
	153.50			  9.69466			  -0.94120			 0.03211
	153.75			  9.55222			  -0.90453			 0.03118
	154.00			  9.37970			  -0.84752			 0.11449
	154.25			  9.55722			  -0.52412			 0.02879
	154.50			  9.64103			  -0.43979			 0.00922
	154.75			  9.44236			  -0.24693			 -0.07276
	155.00			  9.63161			  -0.14628			 -0.14542
	155.25			  9.60998			  -0.16003			 -0.15545
	155.50			  9.63853			  -0.14940			 -0.07742
	155.75			  9.75406			  -0.03206			 -0.02070
	156.00			  9.72455			  -0.05608			 -0.26287
	156.25			  9.67294			  -0.05810			 -0.35324
	156.50			  9.64324			  -0.09036			 -0.29416
	156.75			  9.64199			  -0.23391			 -0.34116
	157.00			  9.49926			  -0.35711			 -0.27533
	157.25			  9.58720			  -0.22603			 -0.19192
	157.50			  9.65852			  -0.20128			 -0.28316
	157.75			  9.66880			  -0.44529			 -0.21814
	158.00			  9.79558			  -0.51551			 -0.23495
	158.25			  9.90986			  -0.53805			 -0.00902
	158.50			  9.70350			  -0.59470			 0.03876
	158.75			  9.72580			  -0.48086			 0.13848
	159.00			  9.80250			  -0.42641			 0.06588
	159.25			  9.74493			  -0.26489			 0.07128
	159.50			  9.82393			  0.03118			 0.03037
	159.75			  9.82364			  0.08490			 0.08172
	160.00			  9.77338			  -0.15801			 -0.05254
	160.25			  9.77972			  -0.05755			 -0.08739
	160.50			  9.76992			  -0.04545			 -0.08096
	160.75			  9.54040			  -0.39744			 0.07992
	161.00			  9.49638			  -0.37544			 0.15146
	161.25			  9.41122			  -0.42714			 -0.01834
	161.50			  9.41007			  -0.30798			 -0.04595
	161.75			  9.51531			  -0.41486			 -0.13582
	162.00			  9.40315			  -0.55510			 0.06454
	162.25			  9.35432			  -0.47847			 0.21741
	162.50			  9.49147			  -0.45281			 0.04420
	162.75			  9.54059			  -0.34959			 -0.02371
	163.00			  9.61440			  -0.38259			 -0.09920
	163.25			  9.69754			  -0.37507			 -0.03589
	163.50			  9.78404			  -0.28634			 0.11863
	163.75			  9.59855			  -0.27278			 0.08039
	164.00			  9.63363			  -0.41577			 -0.09718
	164.25			  9.56923			  -0.18184			 -0.12917
	164.50			  9.56221			  -0.18019			 -0.06919
	164.75			  9.65073			  -0.20238			 -0.05906
	165.00			  9.90361			  -0.36536			 -0.18301
	165.25			  10.16139			  -0.34354			 -0.01821
	165.50			  10.18974			  -0.47297			 -0.16058
	165.75			  10.23770			  -0.53970			 -0.25576
	166.00			  10.07296			  -0.61139			 -0.18155
	166.25			  10.05720			  -0.44181			 -0.07102
	166.50			  10.04874			  -0.38112			 -0.07372