--------------TurbSim v2.00.* User Time Series Input File-----------------------
     Time series input from low-res turbsim run
--------------------------------------------------------------------------------
          3 nComp - Number of velocity components in the file
          1 nPoints - Number of time series points contained in this file (-)
          1 RefPtID - Index of the reference point (1-nPoints)
     Pointyi Pointzi ! nPoints listed in order of increasing height
       (m)     (m)
       -3.86487   94.00000
--------Time Series-------------------------------------------------------------
Elapsed Time         Point01u             Point01v           Point01w
         (s)            (m/s)                (m/s)              (m/s)
	0.00			  10.17642			  -0.06538			 -0.17289
	0.25			  10.18072			  -0.08405			 -0.07983
	0.50			  10.15741			  0.02746			 -0.10119
	0.75			  10.30411			  -0.03376			 -0.11193
	1.00			  10.22788			  -0.07312			 -0.14501
	1.25			  10.11698			  -0.02367			 -0.17083
	1.50			  10.11774			  -0.03696			 -0.18983
	1.75			  10.09880			  0.06127			 -0.08102
	2.00			  10.09735			  -0.00634			 -0.10323
	2.25			  10.18079			  -0.00197			 -0.17633
	2.50			  10.12412			  0.02561			 -0.26779
	2.75			  10.09402			  0.09609			 -0.24665
	3.00			  10.11795			  0.08364			 -0.17310
	3.25			  10.11649			  0.13124			 -0.14761
	3.50			  10.16948			  -0.04856			 -0.06441
	3.75			  10.09235			  -0.02670			 -0.02614
	4.00			  10.13779			  -0.06370			 -0.16549
	4.25			  10.09346			  -0.04553			 -0.17498
	4.50			  10.16928			  0.00190			 -0.04381
	4.75			  10.16803			  -0.03225			 -0.02203
	5.00			  10.07599			  -0.16563			 -0.03949
	5.25			  10.05136			  -0.20028			 0.02210
	5.50			  9.98935			  -0.27008			 -0.04650
	5.75			  10.00628			  -0.30220			 -0.04239
	6.00			  10.05670			  -0.28606			 -0.05563
	6.25			  9.94531			  -0.21642			 -0.06879
	6.50			  9.99393			  -0.11197			 0.03973
	6.75			  9.93740			  -0.01593			 0.07863
	7.00			  9.90016			  -0.22921			 0.03301
	7.25			  9.90251			  -0.21491			 -0.04110
	7.50			  9.92866			  -0.03864			 -0.16096
	7.75			  9.94677			  -0.09095			 -0.13504
	8.00			  9.88961			  -0.19624			 -0.10096
	8.25			  9.82670			  -0.26587			 -0.01711
	8.50			  9.77274			  -0.17034			 -0.07132
	8.75			  9.76837			  -0.11567			 -0.09726
	9.00			  9.68139			  -0.08523			 -0.01903
	9.25			  9.73494			  -0.11029			 -0.09257
	9.50			  9.74160			  -0.09835			 -0.09868
	9.75			  9.72884			  -0.13703			 -0.06498
	10.00			  9.77926			  -0.22214			 -0.07607
	10.25			  9.69672			  -0.27630			 -0.03980
	10.50			  9.82643			  -0.18312			 0.02292
	10.75			  9.76005			  -0.21508			 -0.00923
	11.00			  9.73445			  -0.30489			 0.07266
	11.25			  9.65476			  -0.32054			 0.07135
	11.50			  9.73438			  -0.37251			 0.14758
	11.75			  9.76206			  -0.34493			 0.19968
	12.00			  9.72266			  -0.27496			 0.14746
	12.25			  9.70074			  -0.19338			 0.22331
	12.50			  9.74153			  -0.22736			 0.10222
	12.75			  9.70893			  -0.13687			 0.11241
	13.00			  9.63499			  -0.10121			 -0.00704
	13.25			  9.68514			  -0.05209			 0.06086
	13.50			  9.64956			  -0.03780			 0.10253
	13.75			  9.63284			  0.00745			 -0.00126
	14.00			  9.68708			  0.01132			 -0.01713
	14.25			  9.65490			  -0.07362			 -0.04675
	14.50			  9.75013			  -0.08186			 0.17603
	14.75			  9.69991			  -0.08573			 0.12695
	15.00			  9.69533			  -0.08001			 0.04473
	15.25			  9.65386			  -0.03544			 0.02146
	15.50			  9.65622			  -0.02771			 0.01263
	15.75			  9.57701			  -0.18985			 0.11508
	16.00			  9.61335			  -0.17925			 0.09850
	16.25			  9.65386			  -0.09448			 0.08962
	16.50			  9.60315			  -0.10222			 -0.06037
	16.75			  9.73619			  -0.21558			 -0.08054
	17.00			  9.65004			  -0.12879			 0.03722
	17.25			  9.63894			  -0.07362			 0.07746
	17.50			  9.69173			  -0.01004			 0.05883
	17.75			  9.74631			  -0.08607			 -0.06318
	18.00			  9.84911			  -0.25258			 -0.01154
	18.25			  10.03007			  -0.10659			 -0.02910
	18.50			  10.14798			  -0.07934			 0.06569
	18.75			  10.15859			  0.08869			 0.13163
	19.00			  10.19390			  0.10399			 0.04801
	19.25			  10.13453			  0.00711			 0.11592
	19.50			  9.95710			  -0.05142			 0.23652
	19.75			  9.91965			  -0.00954			 0.19806
	20.00			  9.89683			  0.06363			 0.15851
	20.25			  9.88455			  0.13461			 0.12939
	20.50			  9.97319			  0.06497			 0.15901
	20.75			  9.87768			  0.07574			 0.14343
	21.00			  9.92055			  0.03066			 0.24745
	21.25			  9.93934			  0.10248			 0.20882
	21.50			  9.98887			  0.07052			 0.27085
	21.75			  9.92624			  0.02982			 0.22434
	22.00			  9.91562			  -0.04032			 0.24371
	22.25			  9.95870			  -0.02115			 0.31129
	22.50			  9.94621			  0.02612			 0.26299
	22.75			  9.94753			  0.06716			 0.28169
	23.00			  10.01252			  -0.01240			 0.31728
	23.25			  10.06315			  -0.05024			 0.22761
	23.50			  10.05282			  -0.21625			 0.19461
	23.75			  10.06093			  -0.19624			 0.32443
	24.00			  10.06288			  -0.19607			 0.37557
	24.25			  9.91382			  -0.31919			 0.27314
	24.50			  9.96522			  -0.40178			 0.23641
	24.75			  9.91257			  -0.23341			 0.16908
	25.00			  9.94198			  -0.23122			 0.18588
	25.25			  10.02924			  -0.26789			 0.10964
	25.50			  9.98422			  -0.30271			 0.06102
	25.75			  9.96043			  -0.36225			 0.21925
	26.00			  9.99372			  -0.35889			 0.23890
	26.25			  9.94545			  -0.35266			 0.20874
	26.50			  10.02251			  -0.35249			 0.07833
	26.75			  10.02237			  -0.27882			 0.30941
	27.00			  10.09104			  -0.37402			 0.25228
	27.25			  10.07723			  -0.31600			 0.16518
	27.50			  10.09742			  -0.44938			 0.15336
	27.75			  10.15249			  -0.48133			 0.05731
	28.00			  10.30626			  -0.43441			 -0.08425
	28.25			  10.23558			  -0.51531			 -0.20910
	28.50			  10.30924			  -0.55753			 -0.08686
	28.75			  10.27339			  -0.58999			 -0.06256
	29.00			  10.13577			  -0.58427			 -0.06070
	29.25			  10.09638			  -0.52994			 -0.09441
	29.50			  10.15235			  -0.47578			 0.00967
	29.75			  10.16484			  -0.55416			 0.07197
	30.00			  10.10969			  -0.42280			 -0.07044
	30.25			  10.17094			  -0.39925			 -0.13297
	30.50			  10.20527			  -0.39505			 -0.21478
	30.75			  10.23898			  -0.35451			 -0.14355
	31.00			  10.29995			  -0.41490			 -0.07084
	31.25			  10.29163			  -0.51665			 -0.07401
	31.50			  10.19633			  -0.50337			 -0.08485
	31.75			  10.12155			  -0.42179			 -0.11975
	32.00			  10.03811			  -0.32592			 -0.07795
	32.25			  10.00794			  -0.38714			 0.02546
	32.50			  10.12003			  -0.44416			 0.02938
	32.75			  10.16158			  -0.39286			 -0.07674
	33.00			  10.09235			  -0.41220			 -0.04362
	33.25			  10.13036			  -0.43306			 -0.01897
	33.50			  10.14299			  -0.37369			 0.03639
	33.75			  10.15395			  -0.28421			 0.15926
	34.00			  10.19986			  -0.28320			 0.13029
	34.25			  10.35932			  -0.18531			 0.02978
	34.50			  10.31042			  -0.08758			 0.10195
	34.75			  10.27803			  -0.17269			 -0.02921
	35.00			  10.28809			  -0.23055			 -0.09032
	35.25			  10.22782			  -0.08523			 -0.19421
	35.50			  10.25625			  -0.14763			 -0.23265
	35.75			  10.29884			  -0.13502			 -0.03880
	36.00			  10.21276			  -0.03830			 -0.05219
	36.25			  10.24807			  -0.08523			 -0.07578
	36.50			  10.24190			  -0.18884			 0.01067
	36.75			  10.20264			  -0.25141			 -0.04180
	37.00			  10.32450			  -0.40161			 0.03499
	37.25			  10.31230			  -0.26671			 0.07988
	37.50			  10.18946			  -0.29733			 0.13073
	37.75			  10.20125			  -0.21592			 0.13951
	38.00			  10.14736			  -0.18413			 0.11844
	38.25			  10.09978			  -0.19775			 -0.02059
	38.50			  10.15374			  -0.09061			 0.00903
	38.75			  10.20271			  -0.09498			 0.14729
	39.00			  10.14368			  -0.06151			 0.07760
	39.25			  10.26853			  -0.11113			 0.05981
	39.50			  10.26707			  -0.22164			 0.01130
	39.75			  10.31327			  -0.33063			 0.01787
	40.00			  10.25015			  -0.27496			 0.07639
	40.25			  10.31077			  -0.19321			 0.19040
	40.50			  10.31979			  -0.10188			 0.03545
	40.75			  10.40642			  -0.10440			 0.07685
	41.00			  10.37278			  -0.06891			 0.22698
	41.25			  10.37965			  -0.10794			 0.24505
	41.50			  10.31119			  -0.13350			 0.19420
	41.75			  10.26083			  -0.16075			 0.04851
	42.00			  10.21928			  -0.11584			 0.13298
	42.25			  10.24030			  0.01619			 0.22567
	42.50			  10.20187			  0.00711			 0.10566
	42.75			  10.11968			  0.00156			 0.09660
	43.00			  10.09485			  0.01098			 0.08355
	43.25			  10.08986			  -0.05563			 0.08102
	43.50			  10.20735			  0.13124			 0.16950
	43.75			  10.14784			  0.18254			 0.12612
	44.00			  10.09998			  0.05000			 0.22713
	44.25			  10.00725			  -0.11988			 0.19453
	44.50			  10.00600			  -0.04688			 0.12151
	44.75			  10.03069			  -0.12425			 0.08334
	45.00			  9.97937			  -0.03443			 0.04732
	45.25			  9.89260			  -0.02821			 -0.13074
	45.50			  9.85979			  0.03655			 -0.07249
	45.75			  9.84418			  0.03688			 -0.13485
	46.00			  9.98519			  -0.05579			 -0.16956
	46.25			  9.92998			  0.02780			 -0.07159
	46.50			  9.95925			  0.12199			 -0.07847
	46.75			  10.00177			  0.14453			 -0.12402
	47.00			  9.97576			  0.26782			 -0.11775
	47.25			  9.91965			  0.19465			 -0.04158
	47.50			  10.02251			  0.17901			 -0.00003
	47.75			  10.07585			  0.25890			 -0.09610
	48.00			  10.09194			  0.23552			 -0.02821
	48.25			  10.10754			  0.07675			 0.00938
	48.50			  10.03478			  0.06379			 0.05595
	48.75			  10.02223			  0.10450			 -0.08556
	49.00			  10.07273			  0.14957			 -0.07910
	49.25			  10.04013			  0.12653			 -0.00939
	49.50			  10.10942			  0.05555			 0.10712
	49.75			  10.14299			  0.04226			 0.10998
	50.00			  10.04394			  0.01519			 -0.00612
	50.25			  10.10241			  -0.03208			 -0.08006
	50.50			  10.03673			  -0.08254			 -0.15022
	50.75			  10.00274			  -0.00315			 0.01564
	51.00			  10.04873			  0.00661			 0.18494
	51.25			  10.02875			  -0.02384			 0.07731
	51.50			  10.07557			  0.01401			 0.01274
	51.75			  9.97520			  0.07927			 -0.00781
	52.00			  10.07626			  -0.04789			 -0.07799
	52.25			  10.05240			  0.06161			 -0.10527
	52.50			  10.06080			  0.07136			 -0.09681
	52.75			  10.02896			  -0.00618			 0.00944
	53.00			  10.02806			  0.00375			 0.20851
	53.25			  10.13425			  -0.01105			 0.21017
	53.50			  10.00447			  0.07775			 0.31277
	53.75			  9.96480			  -0.01425			 0.22094
	54.00			  10.01259			  -0.04436			 0.10908
	54.25			  10.02105			  -0.09599			 0.10107
	54.50			  10.05053			  -0.11096			 0.06205
	54.75			  10.14174			  -0.03443			 0.08200
	55.00			  10.17184			  -0.01173			 0.10739
	55.25			  10.16567			  0.06951			 0.19134
	55.50			  10.04692			  0.08835			 0.17232
	55.75			  10.05303			  0.05808			 0.22430
	56.00			  10.13342			  0.06312			 0.25078
	56.25			  10.17739			  0.17699			 0.21716
	56.50			  10.18419			  0.27354			 0.12410
	56.75			  10.12405			  0.25083			 0.18886
	57.00			  10.10990			  0.25756			 0.12274
	57.25			  10.09575			  0.33577			 0.06365
	57.50			  10.07113			  0.23300			 0.06092
	57.75			  10.11476			  0.19011			 0.09245
	58.00			  10.14902			  0.13393			 0.10975
	58.25			  10.04006			  0.08902			 0.07201
	58.50			  10.13806			  0.12586			 -0.04185
	58.75			  10.21339			  0.07187			 -0.11166
	59.00			  10.19924			  0.01485			 -0.11406
	59.25			  10.16296			  0.00459			 -0.07837
	59.50			  10.16990			  0.07355			 -0.11397
	59.75			  10.26617			  0.06850			 0.01197
	60.00			  10.31146			  0.02561			 0.03793
	60.25			  10.30605			  0.01098			 0.00832
	60.50			  10.38804			  0.09441			 -0.01932
	60.75			  10.46572			  -0.01089			 0.08105
	61.00			  10.36466			  -0.03712			 0.10122
	61.25			  10.26562			  -0.12274			 0.15378
	61.50			  10.26832			  -0.12038			 0.00963
	61.75			  10.22865			  0.04815			 0.04953
	62.00			  10.18800			  -0.04015			 0.03745
	62.25			  10.18072			  -0.07480			 0.02394
	62.50			  10.10789			  0.00022			 -0.04566
	62.75			  10.04491			  -0.12089			 -0.06103
	63.00			  9.99282			  -0.08338			 -0.14584
	63.25			  9.94836			  -0.13939			 -0.13128
	63.50			  9.88781			  -0.14410			 -0.18167
	63.75			  9.97853			  -0.11534			 -0.30680
	64.00			  10.00149			  -0.21020			 -0.22825
	64.25			  9.95599			  -0.13014			 -0.12311
	64.50			  9.85743			  -0.01543			 -0.08588
	64.75			  9.82726			  -0.03830			 -0.10878
	65.00			  9.84245			  -0.08859			 -0.15932
	65.25			  9.77718			  -0.20768			 -0.20875
	65.50			  9.79272			  -0.16327			 0.02237
	65.75			  9.80659			  -0.26755			 -0.05515
	66.00			  9.85389			  -0.29564			 -0.08604
	66.25			  9.79820			  -0.18632			 -0.09013
	66.50			  9.82219			  -0.10373			 -0.06531
	66.75			  9.74194			  -0.17118			 0.01889
	67.00			  9.78419			  -0.13636			 0.04688
	67.25			  9.85930			  -0.13518			 0.03191
	67.50			  9.86457			  -0.23795			 -0.06975
	67.75			  9.85403			  -0.25073			 0.05773
	68.00			  9.75242			  -0.05664			 0.05522
	68.25			  9.77704			  -0.00500			 0.05185
	68.50			  9.61377			  -0.02064			 -0.02689
	68.75			  9.60648			  -0.05478			 0.03049
	69.00			  9.77115			  -0.05411			 -0.05955
	69.25			  9.74971			  -0.08203			 -0.00303
	69.50			  9.73730			  -0.10440			 0.00412
	69.75			  9.68153			  -0.13687			 0.05810
	70.00			  9.82927			  -0.13384			 0.00635
	70.25			  9.86499			  -0.14948			 -0.07436
	70.50			  9.84182			  -0.08136			 -0.04564
	70.75			  9.83863			  -0.14612			 -0.09843
	71.00			  9.96799			  -0.00550			 -0.05618
	71.25			  9.96674			  0.07658			 -0.07445
	71.50			  9.95585			  -0.04839			 -0.11904
	71.75			  10.03777			  -0.02148			 -0.13950
	72.00			  9.95121			  -0.05563			 -0.13994
	72.25			  10.00683			  -0.13350			 -0.16399
	72.50			  9.96591			  -0.06690			 -0.02875
	72.75			  9.82011			  -0.01778			 0.08818
	73.00			  9.81387			  0.02427			 0.06811
	73.25			  9.81359			  0.03200			 0.02264
	73.50			  9.92249			  0.01704			 -0.03551
	73.75			  9.86908			  -0.02821			 -0.01434
	74.00			  9.86409			  -0.05041			 -0.09514
	74.25			  9.80465			  -0.11550			 -0.14398
	74.50			  9.84772			  -0.21323			 -0.21000
	74.75			  9.79313			  -0.16546			 -0.18297
	75.00			  9.85056			  -0.19859			 -0.18749
	75.25			  9.81852			  -0.14595			 -0.20188
	75.50			  9.76123			  -0.14040			 -0.12390
	75.75			  9.95904			  -0.02283			 -0.09535
	76.00			  9.98394			  -0.04486			 -0.19102
	76.25			  9.95134			  0.08616			 -0.13758
	76.50			  9.96979			  0.11829			 -0.21221
	76.75			  9.94094			  0.09928			 -0.05862
	77.00			  9.89419			  0.01401			 -0.10050
	77.25			  9.79431			  -0.04688			 -0.06266
	77.50			  9.73244			  -0.13300			 -0.14040
	77.75			  9.68680			  -0.05008			 -0.07881
	78.00			  9.63804			  -0.07009			 -0.02992
	78.25			  9.57555			  -0.10306			 -0.08342
	78.50			  9.71455			  0.07607			 -0.01567
	78.75			  9.72710			  0.05118			 -0.01830
	79.00			  9.74527			  -0.07245			 -0.00386
	79.25			  9.60940			  0.00728			 -0.11914
	79.50			  9.64928			  0.02023			 -0.07536
	79.75			  9.69201			  0.04866			 0.00004
	80.00			  9.70435			  0.13629			 0.08653
	80.25			  9.72821			  0.04378			 0.04386
	80.50			  9.75783			  0.00240			 0.06327
	80.75			  9.74250			  0.00762			 0.08367
	81.00			  9.68209			  0.06699			 0.05426
	81.25			  9.74305			  0.12670			 -0.08410
	81.50			  9.77760			  0.14234			 0.02058
	81.75			  9.76157			  0.11392			 0.05564
	82.00			  9.73237			  0.09188			 -0.01479
	82.25			  9.79216			  0.16774			 -0.04984
	82.50			  9.71968			  0.14419			 0.01363
	82.75			  9.68708			  0.16269			 0.03854
	83.00			  9.77614			  0.00997			 -0.12611
	83.25			  9.78724			  -0.09835			 -0.08095
	83.50			  9.80146			  -0.02653			 -0.01840
	83.75			  9.70914			  -0.01711			 -0.01694
	84.00			  9.68368			  -0.09145			 0.02079
	84.25			  9.58255			  0.03083			 0.04974
	84.50			  9.66600			  0.08785			 0.10831
	84.75			  9.77954			  0.00274			 0.06150
	85.00			  9.78342			  0.03655			 0.05372
	85.25			  9.91673			  0.00661			 0.08613
	85.50			  9.86256			  -0.09482			 0.10184
	85.75			  9.84536			  -0.11534			 0.11463
	86.00			  9.87116			  -0.14410			 0.08370
	86.25			  9.81783			  -0.04217			 0.05687
	86.50			  9.92117			  -0.13703			 0.05821
	86.75			  9.93955			  -0.14528			 0.14593
	87.00			  9.96945			  -0.17017			 0.09083
	87.25			  9.98374			  -0.19573			 -0.07094
	87.50			  9.96938			  -0.30590			 -0.10256
	87.75			  9.94996			  -0.24636			 -0.07514
	88.00			  10.00947			  -0.12812			 -0.14693
	88.25			  9.94122			  -0.13098			 -0.13550
	88.50			  9.95148			  -0.01829			 -0.15629
	88.75			  10.00385			  -0.01122			 -0.11668
	89.00			  9.92790			  0.02259			 -0.09668
	89.25			  9.86007			  -0.06706			 -0.01882
	89.50			  9.84238			  -0.13569			 0.07368
	89.75			  9.84918			  -0.16125			 0.09202
	90.00			  9.91923			  -0.22265			 -0.00418
	90.25			  9.85486			  -0.14662			 0.02811
	90.50			  9.91347			  -0.14040			 0.04452
	90.75			  9.88406			  -0.17538			 0.05733
	91.00			  9.89863			  -0.12005			 0.04227
	91.25			  9.89683			  -0.12644			 0.00590
	91.50			  9.82247			  -0.09583			 0.01731
	91.75			  9.91777			  -0.05125			 0.12560
	92.00			  9.93803			  -0.10726			 0.17835
	92.25			  9.93706			  -0.10138			 0.20083
	92.50			  9.96064			  -0.06875			 0.11004
	92.75			  9.86867			  -0.05478			 0.06282
	93.00			  9.85882			  -0.01341			 0.09882
	93.25			  9.94378			  -0.11920			 -0.03227
	93.50			  9.92131			  -0.18581			 0.09408
	93.75			  10.06274			  -0.18732			 0.18688
	94.00			  10.16934			  -0.15873			 0.16969
	94.25			  10.18460			  -0.19506			 0.15642
	94.50			  10.18086			  -0.17017			 0.15838
	94.75			  10.09513			  -0.16159			 0.12868
	95.00			  10.13106			  -0.14965			 0.12420
	95.25			  10.12003			  -0.23543			 0.08372
	95.50			  10.21706			  -0.21222			 0.02844
	95.75			  10.18446			  -0.07716			 0.08718
	96.00			  10.20201			  -0.11954			 0.11335
	96.25			  10.15263			  -0.22954			 0.13926
	96.50			  10.10858			  -0.15049			 0.16925
	96.75			  10.08757			  -0.31785			 0.07383
	97.00			  9.93213			  -0.30658			 0.02433
	97.25			  9.75055			  -0.32003			 0.13252
	97.50			  9.81900			  -0.24989			 0.24574
	97.75			  9.78405			  -0.21541			 0.31698
	98.00			  9.69381			  -0.19775			 0.26778
	98.25			  9.79549			  -0.26049			 0.27064
	98.50			  9.79827			  -0.23324			 0.27877
	98.75			  9.74500			  -0.26688			 0.27360
	99.00			  9.66808			  -0.23862			 0.30574
	99.25			  9.55967			  -0.28774			 0.24265
	99.50			  9.56306			  -0.34274			 0.19286
	99.75			  9.61502			  -0.33601			 0.16965
	100.00			  9.62362			  -0.22719			 0.23683
	100.25			  9.51437			  -0.23089			 0.13542
	100.50			  9.52173			  -0.12610			 0.06336
	100.75			  9.49370			  -0.11685			 0.02352
	101.00			  9.51888			  -0.06790			 -0.04583
	101.25			  9.60385			  -0.06269			 -0.05280
	101.50			  9.63388			  -0.00348			 -0.09528
	101.75			  9.61203			  -0.01677			 -0.13885
	102.00			  9.58276			  -0.07379			 -0.10327
	102.25			  9.63305			  -0.18463			 -0.06915
	102.50			  9.64963			  -0.17000			 -0.00904
	102.75			  9.67571			  -0.10255			 0.04542
	103.00			  9.66294			  -0.01358			 0.00513
	103.25			  9.70713			  -0.02047			 -0.10794
	103.50			  9.78571			  -0.04537			 -0.12233
	103.75			  9.76976			  -0.09128			 -0.16294
	104.00			  9.74125			  -0.02855			 -0.25340
	104.25			  9.92859			  -0.02686			 -0.23046
	104.50			  9.99997			  0.09020			 -0.13372
	104.75			  9.95148			  0.00863			 -0.20526
	105.00			  9.97950			  -0.07396			 -0.23716
	105.25			  9.93713			  -0.02653			 -0.00336
	105.50			  9.91202			  -0.04133			 -0.05038
	105.75			  9.94441			  -0.09044			 0.01242
	106.00			  9.93352			  -0.16781			 -0.01692
	106.25			  9.90841			  -0.06555			 -0.10190
	106.50			  9.86381			  -0.08876			 -0.15573
	106.75			  9.84786			  -0.17118			 -0.03154
	107.00			  9.76213			  -0.12324			 -0.10133
	107.25			  9.84231			  -0.12425			 -0.15967
	107.50			  9.88372			  -0.06134			 -0.23972
	107.75			  9.78779			  -0.07631			 -0.19940
	108.00			  9.73307			  0.02830			 -0.25213
	108.25			  9.85889			  -0.20095			 -0.24564
	108.50			  9.89905			  -0.26873			 -0.20702
	108.75			  10.00059			  -0.20633			 -0.22018
	109.00			  9.91007			  -0.20818			 -0.29791
	109.25			  9.95329			  -0.29194			 -0.19033
	109.50			  9.93095			  -0.29800			 -0.16632
	109.75			  9.89350			  -0.25561			 -0.20602
	110.00			  9.82185			  -0.29278			 -0.19196
	110.25			  9.90182			  -0.36006			 -0.14021
	110.50			  9.92200			  -0.42532			 -0.07319
	110.75			  9.83371			  -0.30220			 0.03457
	111.00			  9.72141			  -0.19287			 -0.08062
	111.25			  9.71711			  -0.13316			 -0.07265
	111.50			  9.73931			  -0.08506			 -0.22243
	111.75			  9.71059			  -0.17639			 -0.12853
	112.00			  9.70248			  -0.12896			 -0.15990
	112.25			  9.71184			  -0.14309			 -0.26256
	112.50			  9.83100			  -0.27697			 -0.26442
	112.75			  9.88857			  -0.32155			 -0.25962
	113.00			  9.89398			  -0.34055			 -0.28192
	113.25			  9.88941			  -0.25057			 -0.17585
	113.50			  9.91576			  -0.31768			 -0.22560
	113.75			  10.00926			  -0.38613			 -0.24220
	114.00			  9.91902			  -0.37167			 -0.27120
	114.25			  9.91084			  -0.33012			 -0.17873
	114.50			  9.86090			  -0.35636			 -0.19290
	114.75			  9.89488			  -0.34526			 -0.17074
	115.00			  9.97805			  -0.38008			 -0.22965
	115.25			  9.96223			  -0.34997			 -0.10746
	115.50			  10.00350			  -0.33870			 -0.07272
	115.75			  10.05219			  -0.26301			 -0.11013
	116.00			  10.01231			  -0.18127			 -0.03851
	116.25			  10.04013			  -0.15671			 -0.06598
	116.50			  9.93719			  -0.28101			 -0.18593
	116.75			  9.89586			  -0.35485			 -0.18612
	117.00			  9.91112			  -0.35081			 -0.20282
	117.25			  9.90758			  -0.27344			 -0.19974
	117.50			  9.99268			  -0.23459			 -0.08135
	117.75			  10.05122			  -0.25544			 -0.11451
	118.00			  10.02230			  -0.21575			 -0.22981
	118.25			  10.05816			  -0.16697			 -0.28721
	118.50			  10.12253			  -0.19287			 -0.10721
	118.75			  10.20451			  -0.15284			 -0.26533
	119.00			  10.17198			  -0.19489			 -0.22107
	119.25			  10.18259			  -0.31583			 -0.24035
	119.50			  10.16990			  -0.34122			 -0.31562
	119.75			  10.17989			  -0.20784			 -0.32494
	120.00			  10.13917			  -0.13804			 -0.15589
	120.25			  10.04235			  -0.21154			 -0.12974
	120.50			  10.08896			  -0.15251			 -0.09950
	120.75			  10.07793			  -0.06992			 -0.21532
	121.00			  10.09978			  0.00644			 -0.11226
	121.25			  10.17004			  -0.00954			 -0.05021
	121.50			  10.13328			  -0.10289			 0.00967
	121.75			  10.17073			  -0.03578			 0.04002
	122.00			  10.05705			  0.01872			 -0.07392
	122.25			  10.19119			  0.00038			 -0.10471
	122.50			  10.25063			  0.05320			 0.04559
	122.75			  10.22421			  0.08801			 0.01457
	123.00			  10.25320			  0.05942			 0.02534
	123.25			  10.24973			  0.12670			 -0.04892
	123.50			  10.26950			  0.00678			 -0.07780
	123.75			  10.29919			  0.04210			 -0.17035
	124.00			  10.22497			  0.01300			 -0.27049
	124.25			  10.22657			  0.01333			 -0.15247
	124.50			  10.13779			  0.03890			 -0.20234
	124.75			  10.16276			  0.00879			 -0.20633
	125.00			  10.32187			  -0.05209			 -0.11464
	125.25			  10.30175			  -0.05899			 -0.13506
	125.50			  10.35107			  -0.08489			 -0.10667
	125.75			  10.38346			  -0.07901			 -0.08123
	126.00			  10.33727			  -0.07867			 -0.02483
	126.25			  10.23177			  -0.07127			 -0.14136
	126.50			  10.13120			  -0.00433			 -0.13850
	126.75			  10.17004			  -0.08069			 -0.07943
	127.00			  10.19015			  -0.09717			 -0.09703
	127.25			  10.32062			  -0.13316			 -0.07751
	127.50			  10.32527			  -0.23862			 -0.11383
	127.75			  10.29156			  -0.27142			 -0.04295
	128.00			  10.23489			  -0.19523			 -0.02783
	128.25			  10.28060			  -0.12711			 -0.11147
	128.50			  10.31826			  -0.12761			 -0.02470
	128.75			  10.18127			  -0.19859			 -0.02368
	129.00			  10.20832			  -0.22281			 -0.06308
	129.25			  10.28344			  -0.22063			 -0.12624
	129.50			  10.26208			  -0.08287			 -0.16457
	129.75			  10.22476			  -0.07665			 0.02302
	130.00			  10.17649			  0.00408			 0.03376
	130.25			  10.18440			  0.00139			 0.17607
	130.50			  10.34053			  -0.03241			 0.20023
	130.75			  10.32312			  0.09121			 0.21631
	131.00			  10.33269			  0.15731			 0.24386
	131.25			  10.31916			  0.19869			 0.24530
	131.50			  10.43631			  0.18389			 0.27366
	131.75			  10.34191			  0.25958			 0.26620
	132.00			  10.39088			  0.24208			 0.18867
	132.25			  10.32048			  0.16286			 0.08870
	132.50			  10.30030			  -0.07665			 -0.01225
	132.75			  10.23232			  -0.08742			 -0.01060
	133.00			  10.23128			  0.00543			 -0.07184
	133.25			  10.25070			  0.03015			 0.00483
	133.50			  10.27311			  0.06447			 0.07888
	133.75			  10.32117			  -0.02922			 0.01301
	134.00			  10.38623			  -0.04789			 0.04519
	134.25			  10.44221			  0.04428			 -0.08241
	134.50			  10.46759			  0.03806			 -0.00395
	134.75			  10.38526			  0.01855			 0.06582
	135.00			  10.40656			  -0.02518			 0.08618
	135.25			  10.40912			  -0.01913			 0.11657
	135.50			  10.28580			  0.08768			 -0.01855
	135.75			  10.31604			  0.12939			 -0.04268
	136.00			  10.35981			  0.21988			 -0.02126
	136.25			  10.37215			  0.15698			 -0.03951
	136.50			  10.37028			  0.03436			 -0.07036
	136.75			  10.36876			  0.11577			 0.04194
	137.00			  10.20527			  0.14318			 0.07694
	137.25			  10.13508			  0.11678			 -0.05494
	137.50			  10.15193			  0.04983			 0.01105
	137.75			  10.08840			  0.15950			 -0.08273
	138.00			  10.03201			  0.15714			 -0.11566
	138.25			  10.02521			  0.19532			 -0.09812
	138.50			  10.02618			  0.13376			 -0.01104
	138.75			  10.06336			  0.12031			 0.01345
	139.00			  9.97590			  0.09457			 0.06023
	139.25			  9.83302			  0.18338			 0.00214
	139.50			  9.92596			  0.22392			 0.04607
	139.75			  9.89336			  0.13191			 0.02350
	140.00			  9.93123			  0.24847			 -0.00581
	140.25			  9.96757			  0.39565			 0.00056
	140.50			  9.87706			  0.21635			 0.03956
	140.75			  9.86367			  0.08583			 0.06134
	141.00			  9.85694			  0.13780			 0.09852
	141.25			  9.84495			  0.15428			 0.17351
	141.50			  9.83551			  0.14133			 0.05474
	141.75			  9.86846			  0.07187			 0.06215
	142.00			  9.89599			  0.12905			 0.03508
	142.25			  9.89870			  0.13444			 0.03022
	142.50			  9.85812			  -0.01829			 -0.06087
	142.75			  9.95155			  0.08717			 -0.01263
	143.00			  9.95793			  0.11678			 -0.13114
	143.25			  9.96189			  0.13999			 -0.18751
	143.50			  9.98339			  0.09760			 -0.13385
	143.75			  9.89100			  0.01855			 -0.07720
	144.00			  9.88504			  0.09558			 0.00433
	144.25			  9.94580			  -0.01122			 0.08468
	144.50			  9.93338			  0.00307			 0.09583
	144.75			  9.87449			  0.04512			 0.13940
	145.00			  9.87470			  0.08061			 0.00283
	145.25			  9.82976			  -0.01173			 0.00765
	145.50			  9.84009			  0.03890			 0.03825
	145.75			  9.76310			  0.15058			 0.11129
	146.00			  9.92256			  0.08886			 0.07354
	146.25			  9.89509			  0.03806			 0.08728
	146.50			  9.83461			  0.07927			 0.05452
	146.75			  9.75103			  0.03722			 0.01049
	147.00			  9.72329			  0.09996			 -0.00793
	147.25			  9.69547			  0.08465			 -0.06350
	147.50			  9.77260			  0.12569			 -0.16351
	147.75			  9.77260			  0.11627			 -0.07050
	148.00			  9.69124			  0.12435			 -0.15694
	148.25			  9.79764			  0.12788			 -0.02324
	148.50			  9.77427			  0.10719			 -0.11028
	148.75			  9.68119			  0.01653			 -0.12951
	149.00			  9.74229			  -0.00735			 -0.12252
	149.25			  9.92943			  -0.05277			 -0.07449
	149.50			  9.90009			  -0.05764			 -0.01944
	149.75			  9.88878			  -0.14847			 0.05157
	150.00			  9.92637			  -0.24905			 -0.02391
	150.25			  9.91576			  -0.18329			 -0.04493
	150.50			  9.96855			  -0.18043			 0.01351
	150.75			  10.06093			  -0.22668			 0.11659
	151.00			  10.00115			  -0.23122			 0.07068
	151.25			  10.10761			  -0.25629			 0.09506
	151.50			  10.09242			  -0.32508			 0.08766
	151.75			  10.04380			  -0.24182			 -0.00699
	152.00			  10.05663			  -0.21911			 0.05168
	152.25			  10.08029			  -0.20801			 0.05210
	152.50			  10.10075			  -0.17538			 -0.00201
	152.75			  10.01460			  -0.01139			 -0.04153
	153.00			  9.95405			  -0.00130			 -0.02380
	153.25			  9.96425			  -0.02535			 -0.06917
	153.50			  10.05247			  0.00005			 -0.03282
	153.75			  10.11344			  0.06178			 -0.05015
	154.00			  10.14410			  0.02460			 -0.05649
	154.25			  10.04581			  0.03924			 -0.00660
	154.50			  10.14410			  0.13713			 -0.07019
	154.75			  10.02209			  0.02090			 -0.05486
	155.00			  9.94836			  0.01115			 -0.00265
	155.25			  9.96626			  0.00291			 0.15305
	155.50			  10.01703			  -0.01711			 0.18769
	155.75			  10.12169			  -0.02451			 0.13849
	156.00			  10.11275			  -0.09919			 0.00362
	156.25			  10.15762			  -0.01173			 0.00027
	156.50			  10.17482			  -0.03426			 -0.07388
	156.75			  10.22116			  0.02326			 -0.04306
	157.00			  10.19723			  -0.01425			 -0.02587
	157.25			  10.12676			  -0.09835			 -0.04812
	157.50			  10.14888			  -0.05613			 -0.02287
	157.75			  10.18710			  -0.05680			 0.09919
	158.00			  10.16872			  0.13444			 0.07950
	158.25			  10.18960			  0.12754			 -0.01325
	158.50			  10.14021			  0.11779			 0.01105
	158.75			  10.16914			  0.04243			 -0.00046
	159.00			  10.14285			  -0.06067			 -0.00726
	159.25			  10.24786			  0.00392			 -0.03092
	159.50			  10.20943			  0.02763			 0.09888
	159.75			  10.20839			  -0.03813			 0.07324
	160.00			  10.27228			  -0.10558			 0.11137
	160.25			  10.19126			  -0.18194			 0.19005
	160.50			  10.13224			  -0.26856			 0.13561
	160.75			  10.02202			  -0.25174			 0.16543
	161.00			  10.06516			  -0.18497			 0.22792
	161.25			  10.09541			  -0.10894			 0.15336
	161.50			  10.13293			  -0.22971			 0.09942
	161.75			  10.22677			  -0.31970			 0.04859
	162.00			  10.29856			  -0.38563			 0.10632
	162.25			  10.29336			  -0.35569			 0.15071
	162.50			  10.34469			  -0.36797			 0.12998
	162.75			  10.34198			  -0.30321			 0.08718
	163.00			  10.22005			  -0.33635			 0.16158
	163.25			  10.18426			  -0.27731			 0.07867
	163.50			  10.19757			  -0.22853			 -0.00426
	163.75			  10.31445			  -0.28555			 0.12070
	164.00			  10.23877			  -0.38226			 0.10991
	164.25			  10.26035			  -0.48941			 0.02803
	164.50			  10.34524			  -0.54087			 0.05885
	164.75			  10.33692			  -0.43474			 -0.01554
	165.00			  10.28885			  -0.48268			 -0.00459
	165.25			  10.38159			  -0.45997			 -0.00553
	165.50			  10.36723			  -0.42818			 -0.05895
	165.75			  10.37590			  -0.58646			 0.03172