--------------TurbSim v2.00.* User Time Series Input File-----------------------
     Time series input from low-res turbsim run
--------------------------------------------------------------------------------
          3 nComp - Number of velocity components in the file
          1 nPoints - Number of time series points contained in this file (-)
          1 RefPtID - Index of the reference point (1-nPoints)
     Pointyi Pointzi ! nPoints listed in order of increasing height
       (m)     (m)
       -2.68054   94.00000
--------Time Series-------------------------------------------------------------
Elapsed Time         Point01u             Point01v           Point01w
         (s)            (m/s)                (m/s)              (m/s)
	0.00			  11.25382			  0.46300			 -0.06385
	0.25			  11.03173			  0.38379			 -0.07271
	0.50			  11.14137			  0.32848			 -0.07132
	0.75			  11.11379			  0.19207			 -0.12415
	1.00			  11.11238			  0.02110			 -0.08515
	1.25			  11.23371			  0.05693			 0.23512
	1.50			  10.91882			  0.26813			 0.26048
	1.75			  11.06808			  0.25200			 0.10714
	2.00			  11.19467			  0.19857			 0.13126
	2.25			  11.04997			  0.18977			 0.21382
	2.50			  11.17901			  0.37814			 0.10533
	2.75			  11.31495			  0.64843			 0.06584
	3.00			  11.11379			  0.48206			 -0.08132
	3.25			  10.89789			  0.47347			 -0.09439
	3.50			  10.90421			  0.27086			 -0.03413
	3.75			  10.60556			  0.20842			 0.16826
	4.00			  10.74091			  0.05232			 -0.00499
	4.25			  10.81490			  -0.01662			 -0.36919
	4.50			  10.76090			  -0.05831			 -0.17689
	4.75			  10.64179			  -0.12012			 0.03952
	5.00			  10.67604			  0.28909			 -0.02236
	5.25			  10.74910			  0.22916			 -0.14995
	5.50			  10.84845			  0.34042			 -0.03389
	5.75			  10.79690			  0.47682			 0.06374
	6.00			  10.66739			  0.54010			 0.10446
	6.25			  10.47885			  0.49945			 0.08819
	6.50			  10.63139			  0.58159			 -0.07677
	6.75			  10.33578			  0.70374			 -0.21135
	7.00			  10.35331			  0.66331			 -0.15047
	7.25			  10.29966			  0.29286			 -0.04457
	7.50			  10.54466			  0.45545			 -0.09496
	7.75			  10.58872			  0.67923			 -0.08673
	8.00			  10.65512			  1.02768			 -0.14784
	8.25			  10.91999			  0.93737			 -0.10439
	8.50			  10.60696			  1.00903			 -0.18780
	8.75			  10.64530			  0.35006			 0.04048
	9.00			  10.63186			  0.11392			 0.21971
	9.25			  10.51123			  0.20548			 0.29173
	9.50			  10.33788			  0.25179			 0.24507
	9.75			  10.36804			  0.38757			 0.03378
	10.00			  10.32070			  0.24781			 0.29326
	10.25			  10.28517			  0.11099			 0.02392
	10.50			  10.57739			  0.15939			 -0.08233
	10.75			  10.41935			  0.40831			 -0.00365
	11.00			  10.34455			  0.38757			 -0.32257
	11.25			  10.38896			  0.39951			 -0.19168
	11.50			  10.52607			  0.15583			 -0.24102
	11.75			  10.68574			  0.05127			 -0.37402
	12.00			  10.48388			  -0.00719			 -0.40919
	12.25			  10.50632			  0.20611			 -0.28448
	12.50			  10.43350			  0.26331			 0.12906
	12.75			  10.62531			  0.26436			 -0.04126
	13.00			  10.33403			  0.27693			 0.01736
	13.25			  10.34127			  0.28636			 0.13088
	13.50			  10.46342			  0.01188			 0.09226
	13.75			  10.61853			  0.12125			 -0.11061
	14.00			  10.58685			  0.13802			 -0.16722
	14.25			  10.42473			  0.21114			 -0.40671
	14.50			  10.62204			  0.37290			 -0.45318
	14.75			  10.80906			  0.40852			 -0.28577
	15.00			  10.49369			  0.08249			 -0.11755
	15.25			  10.58545			  0.06950			 -0.24246
	15.50			  10.64366			  0.04729			 -0.22274
	15.75			  10.59340			  -0.06208			 -0.31692
	16.00			  10.25980			  -0.35060			 -0.37129
	16.25			  10.16232			  -0.11782			 -0.09668
	16.50			  10.24659			  -0.15553			 -0.01671
	16.75			  10.10387			  0.00224			 -0.21566
	17.00			  9.99061			  -0.22677			 -0.39871
	17.25			  10.07360			  -0.25296			 -0.32324
	17.50			  10.21281			  -0.26847			 -0.18761
	17.75			  10.02602			  -0.30577			 -0.02475
	18.00			  10.11463			  -0.05622			 -0.13334
	18.25			  10.22509			  0.07851			 -0.15306
	18.50			  10.04648			  0.23189			 -0.12655
	18.75			  9.83374			  0.28469			 -0.03605
	19.00			  10.11018			  0.16505			 -0.01140
	19.25			  10.16664			  -0.06544			 -0.26500
	19.50			  10.28517			  -0.22656			 -0.29003
	19.75			  10.30995			  -0.06627			 -0.15301
	20.00			  10.03771			  0.19312			 -0.05007
	20.25			  9.89721			  0.17175			 -0.08917
	20.50			  9.94011			  0.18998			 -0.03040
	20.75			  10.08377			  0.16337			 -0.15177
	21.00			  10.25863			  0.25263			 -0.01705
	21.25			  10.24274			  0.25829			 0.08570
	21.50			  10.44752			  0.32575			 0.09422
	21.75			  10.71859			  0.17468			 0.00004
	22.00			  10.72911			  -0.00886			 0.05508
	22.25			  10.85780			  0.10680			 -0.01896
	22.50			  11.01899			  -0.18948			 0.03837
	22.75			  10.87919			  -0.05873			 -0.04782
	23.00			  10.79129			  0.28573			 -0.16076
	23.25			  11.01373			  0.30019			 -0.00049
	23.50			  10.99176			  0.14912			 -0.17364
	23.75			  10.97270			  -0.09959			 0.07527
	24.00			  10.83723			  -0.06753			 0.29767
	24.25			  10.88527			  0.44917			 0.43693
	24.50			  10.88644			  0.22120			 0.44651
	24.75			  10.66739			  0.46300			 0.18329
	25.00			  10.69334			  0.46823			 0.11298
	25.25			  10.70935			  0.47892			 0.09767
	25.50			  10.59106			  0.17887			 0.36079
	25.75			  10.56172			  0.38694			 0.48943
	26.00			  10.53203			  0.54723			 0.03234
	26.25			  10.50106			  0.48982			 -0.18297
	26.50			  10.43794			  0.73936			 -0.01173
	26.75			  10.45664			  0.72994			 -0.13707
	27.00			  10.49732			  0.54178			 0.01210
	27.25			  10.33601			  0.41418			 0.01464
	27.50			  10.37073			  0.37059			 0.30413
	27.75			  10.78720			  0.40558			 0.37256
	28.00			  10.66529			  0.52397			 0.01794
	28.25			  10.81303			  0.58767			 -0.09836
	28.50			  10.86505			  0.69222			 -0.10802
	28.75			  11.14090			  0.40265			 -0.26141
	29.00			  10.97773			  0.05651			 -0.25753
	29.25			  10.86481			  0.15583			 -0.29635
	29.50			  10.87720			  0.43094			 -0.11913
	29.75			  10.80403			  0.40056			 -0.01097
	30.00			  10.81011			  0.17280			 -0.20781
	30.25			  10.70105			  0.18705			 -0.05141
	30.50			  10.51170			  0.22811			 -0.27165
	30.75			  10.92326			  0.47829			 -0.36919
	31.00			  10.89415			  0.31800			 -0.52712
	31.25			  10.92408			  0.41627			 -0.20159
	31.50			  10.94114			  0.53864			 -0.02403
	31.75			  10.82238			  0.51286			 -0.13703
	32.00			  10.85032			  0.39762			 -0.13918
	32.25			  10.75132			  0.21177			 -0.21303
	32.50			  10.67639			  0.03933			 -0.16636
	32.75			  10.54968			  0.01293			 0.13878
	33.00			  10.51170			  0.09611			 0.34667
	33.25			  10.35834			  0.17070			 0.12830
	33.50			  10.37353			  0.25158			 0.01727
	33.75			  10.55857			  0.35236			 -0.10008
	34.00			  10.53624			  -0.00782			 -0.31630
	34.25			  10.45991			  0.47096			 -0.29151
	34.50			  10.34256			  0.27735			 -0.24681
	34.75			  10.22485			  0.34587			 -0.37847
	35.00			  10.27091			  0.08941			 -0.46993
	35.25			  10.34595			  0.36577			 -0.29304
	35.50			  10.47616			  0.09548			 -0.11405
	35.75			  10.57470			  0.09360			 -0.25117
	36.00			  10.87662			  0.38652			 -0.01312
	36.25			  10.93506			  0.43701			 0.10887
	36.50			  10.90058			  0.24299			 0.10829
	36.75			  10.74512			  0.24697			 0.02957
	37.00			  10.53764			  0.19794			 -0.08256
	37.25			  10.42520			  0.29726			 0.04924
	37.50			  10.53975			  0.54199			 0.21569
	37.75			  10.45582			  0.44581			 0.07809
	38.00			  10.46319			  0.30313			 0.16859
	38.25			  10.68259			  0.25472			 0.10269
	38.50			  10.63279			  0.42402			 -0.08692
	38.75			  10.39200			  0.49652			 0.04483
	39.00			  10.37131			  0.30543			 0.09882
	39.25			  10.48855			  0.07034			 0.48661
	39.50			  10.52514			  0.00098			 0.24593
	39.75			  10.48259			  0.41837			 0.43799
	40.00			  10.37961			  0.35509			 0.46139
	40.25			  10.28435			  0.42130			 0.17759
	40.50			  10.05232			  0.40663			 0.12126
	40.75			  10.03351			  0.43806			 0.31116
	41.00			  10.33765			  0.49065			 0.26015
	41.25			  10.29814			  0.28951			 0.11667
	41.50			  10.43046			  0.39134			 0.13739
	41.75			  10.16103			  0.12188			 0.29513
	42.00			  10.09627			  -0.06250			 0.38525
	42.25			  9.91825			  -0.45809			 0.25024
	42.50			  9.79307			  -0.34704			 0.12720
	42.75			  9.81224			  -0.41074			 -0.05562
	43.00			  10.01153			  -0.04867			 -0.07917
	43.25			  10.00557			  -0.00383			 0.00109
	43.50			  10.14268			  -0.02039			 -0.11865
	43.75			  10.22298			  0.01293			 -0.08941
	44.00			  10.40018			  -0.20016			 -0.24289
	44.25			  10.20206			  -0.32756			 -0.37794
	44.50			  10.30574			  -0.03107			 -0.30400
	44.75			  10.31345			  0.01041			 -0.05021
	45.00			  10.28201			  -0.10378			 0.33203
	45.25			  10.60649			  -0.26763			 0.12232
	45.50			  10.54700			  -0.27790			 0.08958
	45.75			  10.48551			  -0.53562			 0.32236
	46.00			  10.61678			  -0.28439			 0.20884
	46.25			  10.33578			  -0.45809			 0.40118
	46.50			  10.47055			  -0.47297			 0.16792
	46.75			  10.62344			  -0.47004			 0.26240
	47.00			  10.63852			  -0.39167			 0.24411
	47.25			  10.73682			  -0.26554			 0.14438
	47.50			  10.58721			  -0.25066			 0.13179
	47.75			  10.29697			  -0.33510			 -0.16316
	48.00			  10.35331			  -0.48177			 0.06048
	48.25			  10.32070			  -0.52472			 -0.07735
	48.50			  10.40883			  -0.41891			 0.37481
	48.75			  10.20346			  -0.53834			 0.52963
	49.00			  10.29428			  -0.53269			 0.26761
	49.25			  10.45500			  -0.48093			 0.08207
	49.50			  10.53811			  -0.48806			 0.41659
	49.75			  10.35168			  -0.29487			 0.19525
	50.00			  10.34408			  -0.18906			 0.14715
	50.25			  10.67896			  -0.47381			 0.12461
	50.50			  11.01911			  -0.28544			 -0.19139
	50.75			  10.87417			  -0.35417			 -0.35918
	51.00			  10.71917			  -0.34683			 0.05072
	51.25			  10.50001			  -0.12557			 0.18085
	51.50			  10.49650			  -0.12138			 0.14256
	51.75			  10.62671			  -0.12201			 0.58668
	52.00			  10.61210			  -0.21713			 0.29700
	52.25			  10.63466			  -0.23411			 0.20286
	52.50			  10.72654			  -0.26156			 0.19458
	52.75			  10.87019			  -0.39125			 0.14883
	53.00			  10.89088			  -0.63263			 0.16170
	53.25			  10.88656			  -1.00601			 0.21219
	53.50			  10.70012			  -0.79816			 0.37496
	53.75			  10.28680			  -0.74997			 0.36639
	54.00			  10.53987			  -0.71079			 0.37678
	54.25			  10.47382			  -0.49225			 0.16319
	54.50			  10.30048			  -0.17230			 -0.04906
	54.75			  10.44215			  -0.28817			 0.01708
	55.00			  10.56161			  -0.47255			 0.40219
	55.25			  10.54396			  -0.48324			 0.27785
	55.50			  10.50760			  -0.41975			 0.04751
	55.75			  10.62858			  -0.44385			 -0.00302
	56.00			  10.53098			  -0.86227			 -0.38469
	56.25			  10.50433			  -0.72126			 -0.24322
	56.50			  10.48762			  -0.63955			 -0.26337
	56.75			  10.44671			  -1.01481			 -0.14660
	57.00			  10.48049			  -0.85976			 -0.27668
	57.25			  10.40451			  -0.85054			 -0.15272
	57.50			  10.26752			  -0.78684			 -0.29338
	57.75			  10.46950			  -0.46752			 -0.12803
	58.00			  10.43467			  -0.36904			 -0.21264
	58.25			  10.30726			  -0.28377			 -0.24863
	58.50			  10.02941			  -0.20833			 0.01449
	58.75			  10.01702			  -0.56391			 -0.17967
	59.00			  10.04987			  -0.52598			 -0.19881
	59.25			  10.12772			  -0.86940			 -0.07170
	59.50			  10.10235			  -0.60833			 -0.09161
	59.75			  10.13777			  -0.50356			 0.09499
	60.00			  10.16816			  -0.48470			 0.07106
	60.25			  9.94257			  -0.34537			 0.14285
	60.50			  9.58243			  -0.33426			 -0.10975
	60.75			  9.51090			  -0.22573			 -0.27739
	61.00			  9.89534			  -0.15574			 0.01598
	61.25			  10.00686			  -0.17041			 0.05364
	61.50			  9.91475			  -0.20750			 -0.01954
	61.75			  10.17997			  0.03137			 -0.09793
	62.00			  10.07687			  0.03807			 -0.19608
	62.25			  10.31287			  -0.35731			 -0.17483
	62.50			  10.35004			  -0.44259			 0.04010
	62.75			  10.16173			  -0.64436			 0.05249
	63.00			  10.14373			  -0.49602			 0.04211
	63.25			  10.40381			  -0.43085			 -0.09864
	63.50			  10.64226			  -0.19346			 0.16749
	63.75			  10.44869			  -0.09016			 -0.07668
	64.00			  10.40860			  -0.03359			 0.18903
	64.25			  10.41678			  -0.11216			 0.20808
	64.50			  10.46062			  -0.23117			 0.31001
	64.75			  10.29300			  -0.17691			 0.40908
	65.00			  10.26354			  -0.16371			 0.25546
	65.25			  10.41433			  -0.29613			 0.28417
	65.50			  10.22824			  -0.20142			 0.33528
	65.75			  10.10621			  -0.22719			 0.27350
	66.00			  10.18908			  -0.33447			 0.18377
	66.25			  10.48247			  -0.31897			 0.06809
	66.50			  10.61128			  -0.24877			 0.05910
	66.75			  10.35016			  -0.30430			 0.01052
	67.00			  10.38838			  -0.23222			 0.07470
	67.25			  10.33134			  0.04415			 0.35514
	67.50			  10.25852			  0.05986			 0.47914
	67.75			  10.37985			  0.04415			 0.84674
	68.00			  10.42461			  -0.09959			 0.74399
	68.25			  10.14700			  -0.31645			 0.49800
	68.50			  10.08950			  -0.11258			 0.19142
	68.75			  10.08482			  0.15499			 0.09240
	69.00			  10.10118			  0.24530			 -0.11693
	69.25			  10.35729			  0.22392			 -0.12564
	69.50			  10.19680			  0.33916			 -0.09989
	69.75			  10.08552			  0.30375			 -0.17024
	70.00			  10.38627			  0.34063			 -0.22920
	70.25			  10.63326			  0.49107			 0.11049
	70.50			  10.42578			  0.42319			 0.31226
	70.75			  10.45687			  0.45441			 0.26043
	71.00			  10.54548			  0.27589			 0.02617
	71.25			  10.41386			  0.23398			 -0.05959
	71.50			  10.43396			  0.50679			 0.01923
	71.75			  10.49428			  0.67797			 -0.02930
	72.00			  10.51181			  0.54848			 -0.24887
	72.25			  10.40673			  0.49275			 -0.19178
	72.50			  10.44074			  0.54178			 -0.21661
	72.75			  10.40848			  0.31737			 -0.16818
	73.00			  10.64577			  0.23440			 -0.02432
	73.25			  10.54232			  0.32764			 -0.14645
	73.50			  10.60415			  0.44456			 -0.28701
	73.75			  10.67627			  0.71967			 -0.38369
	74.00			  10.66973			  0.80537			 -0.42303
	74.25			  10.74793			  0.68845			 -0.34655
	74.50			  10.64810			  0.56336			 -0.29539
	74.75			  10.66447			  0.73455			 -0.34593
	75.00			  10.77504			  0.72742			 -0.47486
	75.25			  10.57259			  0.75990			 -0.42705
	75.50			  10.54290			  0.63230			 -0.52626
	75.75			  10.56687			  0.24299			 -0.38795
	76.00			  10.68913			  -0.00027			 -0.16995
	76.25			  10.48399			  -0.08597			 0.25967
	76.50			  10.33367			  0.05881			 0.18424
	76.75			  10.53075			  -0.24521			 -0.06596
	77.00			  10.50293			  -0.26176			 -0.04184
	77.25			  10.59585			  -0.13039			 0.41970
	77.50			  10.68621			  0.07621			 0.55170
	77.75			  10.73425			  0.18956			 0.53074
	78.00			  10.64892			  0.00559			 0.56079
	78.25			  10.49603			  0.09988			 0.46230
	78.50			  10.38861			  -0.19241			 0.48561
	78.75			  10.32105			  0.05316			 0.54332
	79.00			  10.24589			  -0.02835			 0.50216
	79.25			  10.20475			  -0.14191			 0.35840
	79.50			  10.00791			  0.01230			 0.42052
	79.75			  10.00826			  0.08563			 0.62966
	80.00			  9.98301			  -0.06334			 0.69393
	80.25			  10.14537			  -0.03673			 0.50427
	80.50			  10.11077			  -0.03757			 0.49101
	80.75			  10.18277			  -0.07214			 0.42138
	81.00			  10.18008			  -0.05831			 0.17415
	81.25			  10.01574			  0.21219			 -0.39273
	81.50			  10.05840			  0.24194			 -0.15359
	81.75			  10.07114			  0.26059			 0.03722
	82.00			  10.27570			  0.45189			 0.02454
	82.25			  10.27733			  0.41019			 0.14816
	82.50			  10.32164			  0.67294			 0.14246
	82.75			  10.34712			  0.76786			 0.20296
	83.00			  10.23046			  0.67022			 0.18257
	83.25			  10.39516			  0.62077			 -0.11678
	83.50			  10.35705			  0.54450			 -0.15057
	83.75			  10.15542			  0.45692			 -0.30970
	84.00			  10.09253			  0.26981			 -0.41030
	84.25			  10.22228			  0.03954			 -0.34999
	84.50			  10.42111			  0.04792			 -0.35445
	84.75			  10.45068			  -0.23851			 -0.57311
	85.00			  10.20557			  -0.51697			 -0.61254
	85.25			  10.20557			  -0.50901			 -0.56019
	85.50			  10.22964			  -0.45998			 -0.73525
	85.75			  10.20779			  -0.26239			 -0.59843
	86.00			  10.01551			  -0.38224			 -0.42968
	86.25			  9.81446			  -0.14170			 -0.43413
	86.50			  9.81796			  -0.11635			 -0.60790
	86.75			  10.20954			  -0.25569			 -0.34655
	87.00			  10.26307			  -0.26596			 -0.19714
	87.25			  10.39095			  -0.23620			 0.04665
	87.50			  10.38709			  -0.14212			 -0.14684
	87.75			  10.27932			  -0.20414			 -0.17952
	88.00			  10.18745			  -0.13165			 0.14888
	88.25			  9.99552			  -0.12033			 -0.09912
	88.50			  10.02427			  -0.27434			 -0.18216
	88.75			  10.04590			  -0.34432			 -0.32434
	89.00			  10.28178			  -0.40550			 -0.27835
	89.25			  10.23701			  -0.39670			 -0.31037
	89.50			  10.20393			  -0.57669			 -0.25567
	89.75			  10.08774			  -0.61796			 -0.32516
	90.00			  9.95531			  -0.72755			 -0.17833
	90.25			  9.91019			  -0.72713			 -0.05753
	90.50			  10.04765			  -0.76065			 -0.13090
	90.75			  9.90142			  -0.57899			 0.01315
	91.00			  9.89523			  -0.65002			 -0.06610
	91.25			  9.89756			  -0.43044			 -0.29941
	91.50			  10.10305			  -0.66448			 -0.31812
	91.75			  10.27313			  -0.68648			 -0.21973
	92.00			  10.01445			  -0.43169			 0.05120
	92.25			  10.04742			  -0.52074			 0.09169
	92.50			  10.20790			  -0.39943			 0.19573
	92.75			  10.42122			  -0.27811			 0.21564
	93.00			  10.49229			  -0.23243			 0.10695
	93.25			  10.39960			  -0.12767			 -0.02375
	93.50			  10.24250			  -0.00488			 -0.01930
	93.75			  10.06869			  0.09297			 0.13366
	94.00			  9.93111			  -0.03003			 0.09178
	94.25			  9.90984			  0.16651			 0.24263
	94.50			  9.79225			  0.28196			 0.05340
	94.75			  9.71721			  0.07683			 -0.01997
	95.00			  9.86110			  -0.22342			 -0.06433
	95.25			  9.88178			  -0.24563			 -0.17048
	95.50			  9.94420			  -0.45097			 -0.27132
	95.75			  9.99435			  -0.41242			 -0.16096
	96.00			  9.99096			  -0.40236			 -0.29142
	96.25			  10.24718			  -0.31394			 -0.41910
	96.50			  10.07991			  -0.27308			 -0.20575
	96.75			  10.15308			  -0.27978			 -0.12454
	97.00			  10.06086			  -0.20603			 -0.09797
	97.25			  10.11287			  -0.37323			 -0.06031
	97.50			  9.88389			  -0.47653			 -0.29008
	97.75			  9.96700			  -0.27476			 -0.26897
	98.00			  9.85993			  -0.27455			 -0.45610
	98.25			  9.78068			  -0.06753			 -0.54717
	98.50			  10.02941			  -0.04008			 -0.58148
	98.75			  10.11708			  -0.02395			 -0.52477
	99.00			  9.99984			  -0.15071			 -0.35904
	99.25			  9.93216			  -0.16601			 -0.54243
	99.50			  10.07851			  -0.12096			 -0.41211
	99.75			  9.98897			  0.05274			 -0.13712
	100.00			  9.86180			  0.22916			 -0.14693
	100.25			  9.94268			  0.05022			 -0.30726
	100.50			  10.04414			  -0.02311			 -0.49639
	100.75			  9.85104			  -0.12180			 -0.16349
	101.00			  9.85864			  0.07767			 0.00688
	101.25			  9.68156			  0.41858			 -0.00250
	101.50			  9.78114			  0.07579			 0.23909
	101.75			  9.89897			  -0.01033			 -0.19278
	102.00			  9.96127			  -0.03233			 -0.01341
	102.25			  9.84251			  0.13802			 0.10384
	102.50			  9.73906			  0.12167			 -0.00331
	102.75			  9.62568			  0.10638			 0.07020
	103.00			  9.63293			  -0.17481			 0.15333
	103.25			  9.68939			  0.00413			 0.12825
	103.50			  9.71615			  0.04792			 0.21430
	103.75			  9.78488			  -0.08681			 0.52916
	104.00			  9.85490			  -0.33678			 0.38491
	104.25			  9.77869			  -0.28293			 0.18065
	104.50			  9.79552			  -0.06460			 0.01081
	104.75			  10.04157			  -0.01222			 0.16496
	105.00			  9.94572			  -0.06166			 0.09307
	105.25			  10.05513			  -0.00614			 0.24096
	105.50			  9.98313			  -0.06669			 0.34892
	105.75			  9.76384			  -0.15155			 0.17778
	106.00			  10.04403			  -0.35836			 0.09513
	106.25			  9.99622			  -0.49162			 0.40114
	106.50			  9.83889			  -0.41116			 0.40956
	106.75			  9.73018			  -0.59219			 0.27895
	107.00			  9.64427			  -0.89287			 0.26345
	107.25			  9.49337			  -0.68103			 0.38740
	107.50			  9.26543			  -0.55783			 0.16261
	107.75			  9.29127			  -0.84593			 0.24785
	108.00			  9.15439			  -0.76903			 -0.26160
	108.25			  9.41657			  -0.65505			 -0.55956
	108.50			  9.42592			  -0.22656			 -0.41341
	108.75			  9.26158			  -0.39733			 -0.22312
	109.00			  9.01214			  -0.36422			 -0.05103
	109.25			  8.90881			  -0.32379			 0.18606
	109.50			  9.11278			  -0.41032			 0.14055
	109.75			  9.41610			  -0.54651			 0.01200
	110.00			  9.49068			  -0.86458			 -0.22260
	110.25			  9.20757			  -0.97228			 -0.24715
	110.50			  9.35590			  -0.77783			 -0.09821
	110.75			  9.38630			  -0.86940			 -0.16172
	111.00			  9.30307			  -0.80193			 -0.12990
	111.25			  9.65865			  -0.91759			 -0.25131
	111.50			  9.71884			  -0.86123			 -0.11889
	111.75			  9.86542			  -0.76275			 -0.05423
	112.00			  9.57028			  -0.69109			 0.08058
	112.25			  9.59038			  -0.41661			 0.14754
	112.50			  9.68670			  -0.27685			 0.00066
	112.75			  9.76291			  -0.11970			 0.06608
	113.00			  9.92983			  -0.41283			 0.06474
	113.25			  9.83468			  -0.48219			 0.03995
	113.50			  9.78091			  -0.58779			 -0.11889
	113.75			  9.75029			  -0.28817			 0.33246
	114.00			  9.64567			  -0.10839			 0.17711
	114.25			  9.51020			  0.06154			 -0.03600
	114.50			  9.25959			  -0.14904			 -0.08649
	114.75			  9.29360			  -0.11761			 -0.01365
	115.00			  9.65339			  -0.17774			 0.01205
	115.25			  9.56128			  -0.16475			 0.22837
	115.50			  9.56864			  -0.52640			 0.43143
	115.75			  9.70996			  -0.69151			 0.35084
	116.00			  9.85993			  -0.74955			 -0.06553
	116.25			  9.72223			  -0.75646			 -0.08151
	116.50			  9.77752			  -0.73048			 -0.22341
	116.75			  9.74070			  -0.82980			 -0.27213
	117.00			  9.85034			  -0.79837			 -0.15445
	117.25			  9.92457			  -0.88847			 -0.01614
	117.50			  9.82603			  -1.02717			 -0.10037
	117.75			  9.73392			  -0.98988			 -0.19302
	118.00			  9.89312			  -0.79166			 -0.05801
	118.25			  10.13800			  -0.67998			 0.10049
	118.50			  10.20405			  -0.64395			 -0.04035
	118.75			  10.17330			  -0.58255			 -0.09405
	119.00			  10.21702			  -0.46040			 -0.27510
	119.25			  10.23572			  -0.64017			 0.03832
	119.50			  10.33730			  -0.48764			 -0.04653
	119.75			  10.02287			  -0.46501			 0.03933
	120.00			  9.86601			  -0.63033			 -0.06141
	120.25			  10.18195			  -0.66427			 -0.02791
	120.50			  9.89102			  -0.69821			 0.00023
	120.75			  9.66379			  -0.66259			 0.01162
	121.00			  9.82568			  -0.68627			 -0.01815
	121.25			  9.77448			  -0.80361			 0.11404
	121.50			  9.76174			  -0.28083			 0.13533
	121.75			  10.08891			  -0.49015			 -0.12592
	122.00			  9.94642			  -0.37344			 0.16989
	122.25			  9.97015			  -0.44468			 0.27288
	122.50			  9.93625			  -0.59492			 -0.07649
	122.75			  9.83503			  -0.62844			 0.11509
	123.00			  9.68880			  -0.66071			 0.21640
	123.25			  9.80405			  -0.61880			 0.43272
	123.50			  9.75379			  -0.44007			 0.36969
	123.75			  9.83538			  -0.19723			 0.38238
	124.00			  10.05373			  -0.58800			 0.03416
	124.25			  10.08353			  -0.80486			 -0.22815
	124.50			  10.48177			  -0.66511			 -0.17962
	124.75			  10.41818			  -0.73635			 0.04211
	125.00			  10.50807			  -0.68564			 -0.21719
	125.25			  10.47488			  -0.41116			 -0.47500
	125.50			  10.12480			  -0.54861			 -0.59082
	125.75			  9.77179			  -0.59638			 -0.51467
	126.00			  9.73170			  -0.61880			 -0.40647
	126.25			  9.60511			  -0.46564			 -0.48969
	126.50			  9.64602			  -0.43358			 -0.39106
	126.75			  9.81633			  -0.45327			 -0.17536
	127.00			  9.78524			  -0.53038			 -0.12339
	127.25			  9.81247			  -0.79145			 -0.39158
	127.50			  9.86191			  -0.68606			 -0.32635
	127.75			  9.99891			  -0.33091			 -0.13229
	128.00			  10.05116			  -0.16056			 -0.10094
	128.25			  10.03701			  -0.30723			 -0.12640
	128.50			  10.03140			  -0.21693			 -0.06572
	128.75			  10.01235			  -0.01159			 -0.23676
	129.00			  9.86086			  -0.08094			 -0.11027
	129.25			  9.80698			  -0.53918			 -0.09324
	129.50			  9.79108			  -0.26491			 -0.20149
	129.75			  9.71826			  -0.28942			 -0.36464
	130.00			  9.96945			  -0.38329			 -0.20020
	130.25			  9.82732			  -0.37365			 -0.29529
	130.50			  9.69126			  -0.23914			 -0.44595
	130.75			  9.74152			  -0.00698			 -0.41934
	131.00			  9.67641			  0.20988			 -0.51290
	131.25			  9.71522			  0.22769			 -0.48448
	131.50			  9.55064			  0.07285			 -0.80182
	131.75			  9.84590			  -0.00949			 -0.59900
	132.00			  9.80370			  0.02676			 -0.52429
	132.25			  9.57565			  -0.11279			 -0.50419
	132.50			  9.56584			  -0.25171			 -0.21987
	132.75			  9.56116			  -0.40885			 -0.18756
	133.00			  9.73322			  -0.55280			 -0.38838
	133.25			  9.53802			  -0.46166			 -0.62001
	133.50			  9.64824			  -0.41304			 -0.58713
	133.75			  9.68378			  -0.55867			 -0.70170
	134.00			  9.80195			  -0.49748			 -0.50395
	134.25			  9.70458			  -0.48387			 -0.33966
	134.50			  9.78068			  -0.60141			 -0.30506
	134.75			  9.82661			  -0.32483			 -0.38637
	135.00			  9.81937			  -0.44154			 -0.23916
	135.25			  9.83690			  -0.38392			 -0.39910
	135.50			  9.97471			  -0.35459			 -0.12363
	135.75			  9.95589			  -0.47590			 -0.26476
	136.00			  9.89593			  -0.11656			 -0.04418
	136.25			  9.96174			  -0.26156			 -0.05217
	136.50			  9.99563			  -0.37135			 -0.19900
	136.75			  10.08190			  -0.46543			 -0.22221
	137.00			  10.24823			  -0.66616			 -0.21896
	137.25			  10.18897			  -0.62865			 -0.25691
	137.50			  9.94689			  -0.75541			 -0.31070
	137.75			  10.06717			  -0.68082			 -0.47663
	138.00			  10.32070			  -0.52640			 -0.40647
	138.25			  10.48703			  -0.41744			 -0.37292
	138.50			  10.36103			  -0.35123			 -0.47265
	138.75			  10.37961			  -0.29277			 -0.37943
	139.00			  10.20124			  -0.13458			 -0.30199
	139.25			  10.02158			  -0.21085			 -0.19852
	139.50			  10.04706			  -0.70115			 -0.47715
	139.75			  10.33204			  -1.01314			 -0.59847
	140.00			  10.40217			  -0.86730			 -0.51759
	140.25			  10.03222			  -0.72461			 -0.50472
	140.50			  9.95274			  -0.80759			 -0.21269
	140.75			  9.89102			  -0.96096			 -0.21451
	141.00			  9.78547			  -0.43421			 -0.03346
	141.25			  9.93918			  -0.26176			 -0.00451
	141.50			  9.88810			  -0.12850			 0.13624
	141.75			  9.84251			  -0.11824			 0.12571
	142.00			  9.78126			  -0.23264			 0.08767
	142.25			  9.78196			  -0.40592			 0.12117
	142.50			  9.76653			  -0.24081			 0.15859
	142.75			  9.64579			  -0.12201			 0.13002
	143.00			  9.64427			  -0.26868			 0.07934
	143.25			  9.95496			  -0.24018			 -0.11410
	143.50			  9.68132			  -0.45558			 -0.14684
	143.75			  9.98932			  -0.23662			 0.02071
	144.00			  9.86939			  -0.28817			 0.09662
	144.25			  9.87746			  -0.26428			 -0.04533
	144.50			  10.08786			  -0.46145			 0.18826
	144.75			  9.93988			  -0.71791			 0.21329
	145.00			  9.86706			  -0.79145			 0.30360
	145.25			  9.80709			  -0.51969			 0.33552
	145.50			  9.93392			  -0.19073			 0.26800
	145.75			  9.82217			  -0.34474			 0.31767
	146.00			  9.70061			  -0.62509			 0.00564
	146.25			  9.65222			  -0.61461			 -0.04007
	146.50			  9.54071			  -0.63829			 -0.18876
	146.75			  9.41821			  -0.65421			 -0.06505
	147.00			  9.46075			  -0.93121			 -0.32664
	147.25			  9.71814			  -0.81345			 -0.23839
	147.50			  9.59354			  -0.73174			 -0.53363
	147.75			  9.46683			  -0.74284			 -0.66093
	148.00			  9.58863			  -0.43840			 -0.85131
	148.25			  9.58582			  -0.52368			 -0.87165
	148.50			  9.42125			  -1.02340			 -1.33065
	148.75			  9.50307			  -1.28448			 -1.11046
	149.00			  9.57764			  -1.07557			 -0.66983
	149.25			  9.88716			  -1.05965			 -0.60182
	149.50			  9.71382			  -1.08270			 -0.51199
	149.75			  9.88892			  -1.12481			 -0.38819
	150.00			  9.76186			  -1.03514			 -0.65763
	150.25			  9.82170			  -0.89098			 -0.35952
	150.50			  9.85163			  -0.67915			 -0.33430
	150.75			  9.76174			  -0.59722			 -0.05237
	151.00			  9.75870			  -0.57333			 0.08901
	151.25			  9.70797			  -0.46291			 -0.04969
	151.50			  9.63515			  -0.46103			 -0.23045
	151.75			  9.69757			  -0.38329			 -0.27443
	152.00			  9.85654			  -0.45034			 -0.07988
	152.25			  9.70505			  -0.51236			 0.06886
	152.50			  9.78827			  -0.52326			 0.15409
	152.75			  9.67770			  -0.36695			 0.21138
	153.00			  9.64871			  -0.49916			 0.18089
	153.25			  9.54363			  -0.27455			 0.04234
	153.50			  9.43971			  -0.13521			 -0.03428
	153.75			  9.43352			  -0.01389			 -0.28974
	154.00			  9.27864			  -0.27119			 -0.23140
	154.25			  9.41563			  -0.42247			 -0.13305
	154.50			  9.30611			  -0.70890			 0.07733
	154.75			  9.37098			  -0.75772			 0.08829
	155.00			  9.63305			  -0.68019			 -0.04145
	155.25			  9.55438			  -0.73090			 -0.08151
	155.50			  9.65829			  -0.68082			 -0.27491
	155.75			  9.32586			  -0.60791			 -0.63102
	156.00			  9.31593			  -1.01670			 -0.57780
	156.25			  9.26707			  -1.18264			 -0.40852
	156.50			  9.40067			  -1.10302			 -0.41231
	156.75			  9.27467			  -1.22036			 -0.13607
	157.00			  9.12435			  -1.18537			 0.12083
	157.25			  9.09711			  -1.09045			 0.09121
	157.50			  8.80466			  -0.98778			 -0.02341
	157.75			  8.88111			  -0.96599			 0.18726
	158.00			  9.02254			  -1.01041			 0.23646
	158.25			  8.92482			  -1.02424			 0.53710
	158.50			  9.11067			  -1.07704			 0.36740
	158.75			  9.10495			  -0.87715			 0.58027
	159.00			  9.14445			  -0.88993			 0.33614
	159.25			  9.17566			  -1.12607			 0.09346
	159.50			  9.08636			  -1.07180			 0.19884
	159.75			  9.29138			  -0.74892			 -0.09295
	160.00			  9.61949			  -0.94064			 -0.10104
	160.25			  9.53112			  -0.75311			 -0.43566
	160.50			  9.54503			  -0.55091			 -0.30501
	160.75			  9.53229			  -0.59387			 -0.27960
	161.00			  9.73135			  -0.70324			 -0.51577
	161.25			  9.88821			  -0.76547			 -0.50539
	161.50			  9.77986			  -0.59031			 -0.47074
	161.75			  9.88436			  -0.83231			 -0.52654
	162.00			  9.83725			  -1.08479			 -0.29534
	162.25			  9.86004			  -0.91675			 -0.26447
	162.50			  10.07547			  -1.01544			 -0.09797
	162.75			  10.09557			  -0.97207			 -0.03839
	163.00			  9.93696			  -0.98548			 -0.02911
	163.25			  9.87524			  -0.76484			 0.21942
	163.50			  10.13473			  -0.44447			 0.14428
	163.75			  10.08821			  -0.32379			 0.23521
	164.00			  10.33075			  -0.33259			 0.06580
	164.25			  10.32175			  -0.35165			 -0.17608
	164.50			  10.15881			  -0.34872			 -0.05208
	164.75			  10.30141			  -0.44887			 -0.10927
	165.00			  10.47172			  -0.47779			 -0.16584