--------------TurbSim v2.00.* User Time Series Input File-----------------------
     Time series input from low-res turbsim run
--------------------------------------------------------------------------------
          3 nComp - Number of velocity components in the file
          1 nPoints - Number of time series points contained in this file (-)
          1 RefPtID - Index of the reference point (1-nPoints)
     Pointyi Pointzi ! nPoints listed in order of increasing height
       (m)     (m)
       -2.95118   94.00000
--------Time Series-------------------------------------------------------------
Elapsed Time         Point01u             Point01v           Point01w
         (s)            (m/s)                (m/s)              (m/s)
	0.00			  10.14794			  -0.18152			 -0.06591
	0.25			  10.00171			  -0.23767			 0.18089
	0.50			  10.01901			  -0.51341			 0.14691
	0.75			  10.02708			  -0.54002			 0.25498
	1.00			  9.85794			  -0.15428			 0.28996
	1.25			  9.88447			  -0.33761			 0.18051
	1.50			  10.15776			  -0.49413			 0.17304
	1.75			  10.05279			  -0.66720			 0.33739
	2.00			  10.25162			  -0.43085			 0.14658
	2.25			  10.17786			  -0.58758			 -0.07787
	2.50			  10.10224			  -0.34222			 -0.11042
	2.75			  10.38078			  -0.23683			 -0.16440
	3.00			  10.34057			  -0.29319			 0.19712
	3.25			  10.13987			  -0.42038			 0.07800
	3.50			  10.17330			  -0.27015			 0.00961
	3.75			  10.23888			  -0.32693			 0.03488
	4.00			  10.34536			  -0.20875			 0.06627
	4.25			  10.09370			  -0.17188			 0.13940
	4.50			  10.12480			  -0.03778			 0.21856
	4.75			  10.10679			  -0.24354			 0.24258
	5.00			  10.02170			  -0.31666			 -0.05864
	5.25			  10.20708			  -0.10315			 0.18640
	5.50			  10.14689			  -0.24395			 -0.03088
	5.75			  10.23864			  0.02278			 -0.23609
	6.00			  9.95239			  -0.05852			 0.02416
	6.25			  9.96583			  -0.15344			 0.22468
	6.50			  10.09756			  -0.31373			 -0.07591
	6.75			  10.11708			  -0.46082			 -0.02030
	7.00			  10.01714			  -0.31498			 0.39008
	7.25			  10.00148			  -0.17711			 0.17534
	7.50			  10.22263			  -0.05245			 0.14017
	7.75			  10.48516			  0.37374			 -0.05591
	8.00			  10.49241			  0.38589			 0.15371
	8.25			  10.57505			  0.15059			 0.11696
	8.50			  10.39574			  0.17531			 0.07455
	8.75			  9.97261			  0.32366			 0.23454
	9.00			  10.19586			  0.20067			 0.03392
	9.25			  10.25793			  0.20569			 -0.23174
	9.50			  10.39247			  0.37227			 -0.40896
	9.75			  10.32093			  0.15331			 -0.47586
	10.00			  10.22871			  0.29747			 -0.46825
	10.25			  9.89371			  0.34985			 -0.41436
	10.50			  9.70482			  0.26436			 -0.31659
	10.75			  9.63994			  0.57677			 -0.24117
	11.00			  9.66940			  0.63313			 -0.06356
	11.25			  9.68775			  0.27714			 0.03761
	11.50			  9.67688			  0.40789			 -0.18555
	11.75			  9.75461			  -0.13521			 0.04431
	12.00			  9.84730			  -0.08220			 -0.12769
	12.25			  9.86694			  -0.16685			 -0.33947
	12.50			  9.86998			  0.04415			 -0.28845
	12.75			  9.54059			  -0.09896			 0.01904
	13.00			  9.70762			  -0.15616			 -0.02509
	13.25			  9.75520			  0.41439			 0.09001
	13.50			  9.77904			  0.17364			 0.05144
	13.75			  9.87477			  0.14745			 0.14983
	14.00			  9.82346			  -0.02521			 0.24938
	14.25			  9.68869			  -0.06753			 0.12624
	14.50			  9.66776			  -0.15009			 0.13691
	14.75			  9.57343			  0.07453			 0.12634
	15.00			  9.48168			  -0.04365			 0.18549
	15.25			  9.65514			  -0.32337			 -0.02202
	15.50			  9.66823			  -0.12201			 -0.30262
	15.75			  9.50353			  -0.25045			 -0.34559
	16.00			  9.40932			  -0.28397			 -0.46796
	16.25			  9.51429			  -0.27957			 -0.34353
	16.50			  9.83176			  -0.45998			 -0.19211
	16.75			  9.77717			  -0.55511			 -0.29606
	17.00			  9.80464			  -0.34977			 -0.37957
	17.25			  9.90376			  -0.58109			 -0.16210
	17.50			  9.78652			  -0.72943			 -0.21451
	17.75			  9.76034			  -0.60979			 -0.59144
	18.00			  9.68985			  -0.61210			 -0.57526
	18.25			  9.90785			  -0.63221			 -0.61934
	18.50			  10.04040			  -0.56558			 -0.42001
	18.75			  10.02065			  -0.60518			 -0.50630
	19.00			  10.25653			  -0.67433			 -0.58282
	19.25			  10.34361			  -0.78014			 -0.42312
	19.50			  10.41970			  -0.85452			 -0.66796
	19.75			  10.34478			  -0.61943			 -0.59239
	20.00			  10.12515			  -0.89433			 -0.57923
	20.25			  10.21059			  -1.03304			 -0.55023
	20.50			  10.28131			  -0.95300			 -0.35985
	20.75			  10.13812			  -0.83315			 -0.07926
	21.00			  9.97448			  -0.72189			 -0.09797
	21.25			  10.01048			  -0.72021			 -0.14143
	21.50			  10.13216			  -0.69905			 -0.31415
	21.75			  10.03654			  -0.42101			 -0.25997
	22.00			  10.04438			  -0.55133			 0.13605
	22.25			  9.98266			  -0.45621			 0.34897
	22.50			  10.00837			  -0.49246			 0.00535
	22.75			  10.05571			  -0.47590			 0.02296
	23.00			  10.08517			  -0.53331			 0.09250
	23.25			  10.21971			  -0.54044			 0.54136
	23.50			  10.24975			  -0.70869			 0.56749
	23.75			  10.20849			  -0.75479			 0.46460
	24.00			  10.24893			  -0.63431			 0.36539
	24.25			  10.24297			  -0.65840			 0.11983
	24.50			  10.03760			  -0.46878			 0.19090
	24.75			  10.02077			  -0.19262			 0.41004
	25.00			  10.05688			  -0.28146			 0.26761
	25.25			  10.35775			  -0.12159			 0.39759
	25.50			  10.25583			  -0.12306			 0.50389
	25.75			  10.45068			  0.00392			 0.35366
	26.00			  10.59340			  0.08522			 0.20291
	26.25			  10.68364			  -0.12955			 0.15629
	26.50			  10.82811			  -0.13835			 0.19788
	26.75			  10.46307			  -0.24605			 0.36424
	27.00			  10.47160			  -0.22698			 0.45651
	27.25			  10.34957			  -0.34767			 0.32897
	27.50			  10.38113			  -0.22216			 0.34418
	27.75			  10.46786			  -0.13458			 0.37740
	28.00			  10.26962			  -0.02584			 0.46881
	28.25			  10.34735			  0.08186			 0.43789
	28.50			  10.32596			  0.14305			 0.17065
	28.75			  10.32947			  0.15708			 0.15921
	29.00			  10.13064			  0.15101			 0.17199
	29.25			  10.30621			  -0.03317			 0.51748
	29.50			  10.38534			  -0.28817			 0.31159
	29.75			  10.13532			  -0.25569			 0.04412
	30.00			  10.18230			  -0.21713			 -0.10410
	30.25			  10.37307			  -0.22992			 -0.15387
	30.50			  10.18172			  0.00622			 0.10580
	30.75			  10.05735			  -0.04658			 0.31954
	31.00			  10.07944			  0.15855			 0.22435
	31.25			  9.84041			  0.11811			 0.27001
	31.50			  9.91381			  0.21408			 0.21770
	31.75			  10.08190			  0.26206			 0.16524
	32.00			  10.43490			  0.22225			 0.23000
	32.25			  10.29989			  0.14661			 -0.15301
	32.50			  9.94187			  0.02361			 0.04684
	32.75			  9.62872			  -0.09707			 0.24608
	33.00			  9.48892			  -0.22719			 -0.01365
	33.25			  9.44591			  0.06468			 -0.22729
	33.50			  9.35918			  0.06363			 -0.00212
	33.75			  9.39027			  0.31109			 0.04574
	34.00			  9.38945			  0.24949			 0.13208
	34.25			  9.33709			  0.26981			 -0.01580
	34.50			  9.30634			  0.38212			 0.02756
	34.75			  9.63597			  0.27840			 0.35720
	35.00			  9.40137			  0.08354			 0.35672
	35.25			  9.49266			  0.10743			 0.55581
	35.50			  9.43071			  0.17762			 0.52427
	35.75			  9.32949			  -0.03149			 0.30992
	36.00			  9.21237			  -0.14946			 0.27556
	36.25			  9.62194			  -0.51907			 0.50121
	36.50			  9.97869			  -0.70659			 0.32428
	36.75			  10.00662			  -0.65777			 0.24387
	37.00			  9.80826			  -0.50377			 0.36505
	37.25			  9.76384			  -0.36276			 0.20353
	37.50			  9.54959			  -0.28146			 0.16390
	37.75			  9.64859			  -0.51969			 0.16950
	38.00			  9.54784			  -0.32316			 0.08594
	38.25			  9.57519			  -0.52179			 -0.25576
	38.50			  9.59436			  -0.61168			 -0.23006
	38.75			  9.67127			  -0.68899			 -0.11094
	39.00			  9.45047			  -0.69402			 -0.41661
	39.25			  9.53626			  -0.40362			 -0.44432
	39.50			  9.47782			  -0.51488			 -0.48830
	39.75			  9.47595			  -0.43253			 -0.40450
	40.00			  9.48670			  -0.37009			 -0.34717
	40.25			  9.51756			  -0.43148			 -0.23131
	40.50			  9.20781			  -0.74640			 -0.40800
	40.75			  9.08087			  -0.44573			 -0.48582
	41.00			  9.38524			  -0.59869			 -0.54425
	41.25			  9.20302			  -0.55070			 -0.55215
	41.50			  9.29968			  -0.46354			 -0.37115
	41.75			  9.45234			  -0.46082			 -0.21078
	42.00			  9.35579			  -0.30849			 -0.24586
	42.25			  9.32844			  -0.32546			 -0.17254
	42.50			  9.26508			  -0.04281			 -0.35253
	42.75			  9.32797			  -0.37177			 -0.13932
	43.00			  9.49874			  -0.30304			 -0.42757
	43.25			  9.15895			  0.04059			 -0.45399
	43.50			  9.04323			  0.03514			 -0.48519
	43.75			  9.32142			  0.24802			 -0.37545
	44.00			  9.35824			  0.68845			 -0.21728
	44.25			  9.37098			  0.45441			 -0.19053
	44.50			  9.51125			  0.50993			 -0.22987
	44.75			  9.45222			  0.51496			 0.03966
	45.00			  9.31488			  0.37017			 0.09920
	45.25			  9.21903			  0.30250			 0.03416
	45.50			  9.08169			  0.56378			 0.23799
	45.75			  9.30260			  0.61407			 0.27876
	46.00			  9.09337			  0.29600			 0.48632
	46.25			  9.44848			  0.34608			 0.51801
	46.50			  9.56630			  0.31172			 0.72939
	46.75			  9.46905			  0.29286			 0.65301
	47.00			  9.45818			  0.38296			 0.67354
	47.25			  9.43539			  0.24362			 0.56711
	47.50			  9.37578			  0.41397			 0.79922
	47.75			  9.62440			  0.58704			 0.66938
	48.00			  9.52691			  0.51643			 0.55127
	48.25			  9.44509			  0.52774			 0.53495
	48.50			  9.20302			  0.45399			 0.43631
	48.75			  8.92517			  0.33791			 0.62344
	49.00			  8.84171			  0.30606			 0.79773
	49.25			  8.83599			  0.55205			 0.87842
	49.50			  9.13288			  0.86445			 0.50527
	49.75			  9.19051			  0.97173			 0.38553
	50.00			  9.29197			  0.79510			 0.07589
	50.25			  9.34188			  0.55477			 0.35361
	50.50			  9.55111			  0.19857			 0.47709
	50.75			  9.44521			  0.07893			 0.56639
	51.00			  9.32236			  0.10952			 0.42253
	51.25			  9.30284			  0.22497			 0.38333
	51.50			  9.28086			  0.22015			 0.40875
	51.75			  9.27128			  0.34377			 0.54801
	52.00			  9.07970			  0.07055			 0.24560
	52.25			  8.96772			  -0.19555			 0.12820
	52.50			  9.18338			  -0.13542			 0.20827
	52.75			  9.34515			  0.11203			 0.24737
	53.00			  9.48004			  0.19668			 0.17218
	53.25			  9.59798			  0.17992			 0.36610
	53.50			  9.50342			  0.04624			 0.33653
	53.75			  9.14001			  0.15499			 0.51896
	54.00			  9.20313			  0.18013			 0.30422
	54.25			  9.43866			  0.08144			 0.08188
	54.50			  9.39682			  0.04415			 -0.12966
	54.75			  9.03925			  0.22602			 0.14926
	55.00			  8.92377			  0.49736			 0.23464
	55.25			  8.98677			  0.50888			 0.41253
	55.50			  8.92950			  0.35823			 0.38295
	55.75			  9.00466			  0.53759			 0.14802
	56.00			  9.02710			  0.63334			 0.30724
	56.25			  9.09583			  0.34734			 0.24320
	56.50			  9.05352			  0.61658			 0.27541
	56.75			  9.12692			  0.41418			 0.22650
	57.00			  9.40804			  0.47096			 0.33983
	57.25			  9.61633			  0.39301			 0.29346
	57.50			  9.72726			  0.29391			 0.21779
	57.75			  9.78898			  0.35970			 0.48240
	58.00			  9.75484			  0.16693			 0.38927
	58.25			  9.88190			  0.45524			 0.28637
	58.50			  9.95239			  0.36955			 0.02880
	58.75			  10.25852			  0.16023			 -0.13305
	59.00			  10.25384			  0.08836			 -0.19024
	59.25			  10.37938			  -0.02793			 -0.16703
	59.50			  10.33005			  -0.18466			 -0.00676
	59.75			  10.42590			  -0.12075			 -0.04744
	60.00			  10.51333			  -0.34327			 -0.06495
	60.25			  10.46552			  -0.21839			 0.04354
	60.50			  10.50375			  -0.26197			 0.04388
	60.75			  10.61035			  -0.17188			 -0.04155
	61.00			  10.50164			  0.01460			 0.01210
	61.25			  10.47768			  0.10575			 -0.19805
	61.50			  10.43326			  0.07285			 -0.20666
	61.75			  10.39013			  -0.24773			 0.18061
	62.00			  10.33870			  -0.61147			 0.36921
	62.25			  10.19925			  -0.55238			 0.26948
	62.50			  10.45676			  -0.39377			 0.23899
	62.75			  10.55237			  -0.40739			 0.27091
	63.00			  10.32339			  -0.19828			 0.29499
	63.25			  10.41328			  -0.02458			 0.47828
	63.50			  10.61327			  0.26436			 0.29192
	63.75			  10.54957			  0.21030			 0.08561
	64.00			  10.33508			  0.25493			 0.04479
	64.25			  10.13976			  0.34105			 0.27556
	64.50			  10.09253			  0.33895			 0.30260
	64.75			  9.83772			  0.47662			 0.22894
	65.00			  9.85221			  0.56106			 0.33686
	65.25			  9.94303			  0.49044			 0.21057
	65.50			  9.91884			  0.65220			 -0.01001
	65.75			  10.11661			  0.60715			 0.37950
	66.00			  10.36500			  0.39364			 0.42157
	66.25			  10.32269			  0.53298			 0.42813
	66.50			  10.57248			  0.66833			 0.48446
	66.75			  10.57365			  0.28259			 0.48795
	67.00			  10.62999			  0.39783			 0.44962
	67.25			  10.67849			  0.29558			 0.45665
	67.50			  10.48306			  0.21261			 0.17620
	67.75			  10.58031			  0.32114			 -0.01250
	68.00			  10.67744			  0.17427			 0.10758
	68.25			  10.42590			  0.09883			 -0.10257
	68.50			  10.68866			  0.11685			 -0.00470
	68.75			  10.41912			  0.13341			 0.06929
	69.00			  10.35062			  0.24634			 0.14203
	69.25			  10.26307			  0.43366			 -0.06639
	69.50			  10.32082			  0.15226			 -0.25208
	69.75			  10.21515			  0.03472			 -0.44882
	70.00			  10.07290			  0.26604			 -0.49716
	70.25			  10.05665			  0.10533			 -0.50324
	70.50			  9.88202			  0.35907			 -0.57847
	70.75			  9.90516			  0.00832			 -0.56440
	71.00			  9.98032			  0.09381			 -0.49520
	71.25			  10.04368			  -0.00614			 -0.34578
	71.50			  10.22286			  0.26143			 -0.29328
	71.75			  10.30013			  0.41145			 -0.22633
	72.00			  9.92106			  0.57866			 -0.20250
	72.25			  9.92375			  0.65618			 -0.32965
	72.50			  9.91896			  0.66142			 -0.30472
	72.75			  9.93403			  0.70647			 -0.26218
	73.00			  10.21375			  0.56252			 -0.41187
	73.25			  10.32012			  0.81417			 -0.21609
	73.50			  10.50831			  0.66938			 0.09872
	73.75			  10.51228			  0.57928			 -0.20369
	74.00			  10.29978			  1.05450			 -0.42489
	74.25			  10.19434			  0.77750			 -0.09309
	74.50			  10.40591			  0.65597			 -0.23839
	74.75			  10.44098			  0.20947			 -0.35756
	75.00			  10.19949			  -0.09435			 -0.36076
	75.25			  10.03012			  -0.11174			 -0.59603
	75.50			  10.11989			  -0.06523			 -0.47825
	75.75			  10.43268			  0.37332			 -0.28247
	76.00			  10.24215			  0.52669			 -0.33559
	76.25			  10.21620			  0.44644			 -0.35693
	76.50			  10.12117			  0.23084			 -0.37876
	76.75			  10.18675			  0.22350			 -0.42432
	77.00			  10.07664			  0.56252			 -0.13822
	77.25			  10.00253			  0.49820			 -0.18359
	77.50			  10.12970			  0.79552			 -0.30802
	77.75			  10.11872			  0.73140			 -0.32951
	78.00			  9.86519			  0.52292			 -0.21968
	78.25			  9.95203			  0.54932			 -0.12391
	78.50			  10.00183			  0.30040			 -0.27280
	78.75			  9.93088			  0.33539			 0.05747
	79.00			  9.94923			  0.33057			 0.07781
	79.25			  9.86647			  0.43827			 -0.18120
	79.50			  9.77285			  0.38421			 -0.22968
	79.75			  9.70236			  0.11057			 -0.24538
	80.00			  9.60990			  0.14011			 0.03866
	80.25			  9.78734			  0.25954			 0.11605
	80.50			  10.04216			  0.17510			 -0.03911
	80.75			  10.10224			  0.22455			 0.09518
	81.00			  10.11217			  0.21324			 0.38673
	81.25			  10.17810			  0.47536			 0.24947
	81.50			  10.38008			  0.42717			 0.21487
	81.75			  10.50340			  0.56692			 0.26345
	82.00			  10.30597			  0.07097			 0.13797
	82.25			  10.48177			  0.12419			 0.31327
	82.50			  10.76464			  0.28469			 0.40372
	82.75			  10.63887			  0.54618			 0.37022
	83.00			  10.51859			  0.57258			 0.04206
	83.25			  10.75272			  0.38400			 0.35945
	83.50			  10.62940			  0.50616			 0.44426
	83.75			  10.58872			  0.40265			 0.13739
	84.00			  10.67791			  0.06321			 0.26077
	84.25			  10.86353			  0.33267			 0.14802
	84.50			  10.93226			  0.39699			 -0.06352
	84.75			  10.82344			  0.33120			 -0.25883
	85.00			  10.73343			  0.54744			 -0.12535
	85.25			  10.64577			  0.49275			 -0.35033
	85.50			  10.58791			  0.50385			 -0.50960
	85.75			  10.51403			  0.65304			 -0.41164
	86.00			  10.61117			  0.44875			 -0.35157
	86.25			  10.64097			  0.34189			 -0.22992
	86.50			  10.81596			  0.42591			 -0.08213
	86.75			  10.64191			  0.49820			 -0.35483
	87.00			  10.56430			  0.66833			 -0.17455
	87.25			  10.42637			  0.48814			 -0.19852
	87.50			  10.41994			  0.55205			 -0.31396
	87.75			  10.38195			  0.27798			 -0.06892
	88.00			  10.32000			  -0.03715			 -0.06644
	88.25			  10.26413			  -0.22384			 -0.36899
	88.50			  10.40416			  0.04310			 -0.10228
	88.75			  10.65196			  -0.12494			 -0.20216
	89.00			  10.76523			  -0.17732			 -0.26969
	89.25			  10.74980			  0.09800			 -0.16603
	89.50			  10.81467			  -0.16391			 -0.27524
	89.75			  10.73694			  0.10051			 -0.06342
	90.00			  10.69533			  0.33057			 -0.25098
	90.25			  10.51006			  0.50323			 -0.19211
	90.50			  10.28972			  0.33812			 -0.33870
	90.75			  10.42473			  0.32156			 -0.20786
	91.00			  10.76791			  0.56923			 -0.07017
	91.25			  10.76873			  0.58159			 -0.07629
	91.50			  10.58218			  0.39008			 -0.11391
	91.75			  10.76265			  0.51517			 0.04909
	92.00			  10.79141			  0.71527			 0.25574
	92.25			  10.58031			  0.75885			 0.28010
	92.50			  10.48540			  0.57342			 0.36524
	92.75			  10.41690			  0.53507			 0.00186
	93.00			  10.33438			  0.61784			 -0.12592
	93.25			  10.28762			  0.42947			 0.10379
	93.50			  10.14619			  0.14179			 -0.06581
	93.75			  10.32070			  0.23398			 0.08030
	94.00			  10.29288			  0.29495			 0.35883
	94.25			  10.15729			  0.27149			 0.36998
	94.50			  10.30515			  0.45734			 0.38094
	94.75			  10.42859			  0.81102			 0.26603
	95.00			  10.41772			  0.93737			 0.40568
	95.25			  10.48633			  1.01971			 0.38625
	95.50			  10.27067			  0.97844			 0.55620
	95.75			  10.16372			  1.02244			 0.52150
	96.00			  10.04531			  1.14774			 0.53935
	96.25			  10.17845			  1.14836			 0.53528
	96.50			  10.21854			  1.00924			 0.53394
	96.75			  10.29954			  0.91495			 0.69221
	97.00			  10.44682			  0.72826			 0.30710
	97.25			  10.42403			  0.73392			 0.08183
	97.50			  10.20533			  0.36347			 0.30509
	97.75			  10.32421			  0.28301			 0.25890
	98.00			  10.34688			  0.30732			 0.27115
	98.25			  10.36208			  0.52334			 0.29020
	98.50			  10.30130			  0.28888			 0.37481
	98.75			  9.97974			  0.08270			 0.13744
	99.00			  9.99423			  0.22120			 0.37836
	99.25			  10.12117			  0.36850			 0.60195
	99.50			  10.05536			  0.31423			 0.31700
	99.75			  10.02112			  0.28259			 0.19176
	100.00			  9.93427			  0.34713			 0.38941
	100.25			  10.17471			  0.29055			 0.37673
	100.50			  9.83339			  -0.06250			 -0.01451
	100.75			  9.76794			  -0.05685			 -0.12851
	101.00			  9.70014			  0.21701			 0.28886
	101.25			  9.71347			  0.34335			 0.18855
	101.50			  9.95227			  0.19375			 0.03258
	101.75			  10.04660			  0.02026			 0.11791
	102.00			  9.99189			  -0.04888			 -0.03298
	102.25			  9.84216			  0.15226			 -0.12444
	102.50			  9.92866			  0.26227			 -0.31597
	102.75			  9.96466			  0.73329			 -0.36531
	103.00			  9.94853			  0.55121			 -0.19867
	103.25			  9.93894			  0.49044			 -0.20010
	103.50			  9.77647			  0.46006			 -0.36445
	103.75			  9.98172			  0.20150			 -0.44758
	104.00			  9.99154			  -0.03233			 -0.38876
	104.25			  10.12129			  0.01691			 -0.37421
	104.50			  10.20849			  0.30564			 -0.14459
	104.75			  10.05256			  0.23335			 -0.23169
	105.00			  9.91218			  0.08375			 0.15897
	105.25			  9.98628			  0.56294			 0.05469
	105.50			  10.22088			  0.61469			 -0.11635
	105.75			  10.06168			  0.23440			 -0.24408
	106.00			  10.18347			  0.22099			 -0.23150
	106.25			  10.14104			  0.11685			 -0.04524
	106.50			  10.37926			  0.16211			 -0.04677
	106.75			  10.50947			  0.15646			 -0.01489
	107.00			  10.42508			  0.27819			 0.19664
	107.25			  10.23093			  0.37122			 -0.06936
	107.50			  10.32982			  0.33665			 0.04234
	107.75			  10.48095			  0.04918			 -0.02590
	108.00			  10.47230			  0.07851			 -0.08749
	108.25			  10.60310			  -0.02102			 0.10743
	108.50			  10.65757			  0.24090			 0.32514
	108.75			  10.54150			  0.35739			 0.34859
	109.00			  10.53145			  0.54848			 0.31188
	109.25			  10.37646			  0.34273			 0.43760
	109.50			  10.37903			  0.34566			 -0.03868
	109.75			  10.45033			  0.43052			 -0.01044
	110.00			  10.52701			  0.34985			 0.02698
	110.25			  10.75342			  0.65513			 -0.25892
	110.50			  10.68551			  0.58306			 -0.15201
	110.75			  10.84354			  0.40579			 -0.01709
	111.00			  10.74851			  0.45608			 0.15007
	111.25			  10.69077			  0.64110			 0.23248
	111.50			  10.60743			  0.45021			 0.09973
	111.75			  10.62391			  0.44037			 -0.00269
	112.00			  10.60754			  0.34482			 -0.11013
	112.25			  10.67183			  0.42549			 -0.05294
	112.50			  10.70854			  0.53298			 -0.00580
	112.75			  10.65430			  0.47787			 -0.16115
	113.00			  10.62087			  0.20632			 -0.08390
	113.25			  10.40287			  0.48479			 -0.15430
	113.50			  10.20147			  -0.06439			 -0.45208
	113.75			  10.26530			  -0.29131			 -0.02935
	114.00			  10.05326			  -0.43169			 -0.08496
	114.25			  10.04180			  -0.61922			 0.00205
	114.50			  9.92164			  -0.36485			 -0.04251
	114.75			  10.08926			  -0.55406			 -0.16536
	115.00			  10.25290			  -0.53457			 -0.19742
	115.25			  10.22403			  -0.40843			 -0.22279
	115.50			  10.42344			  -0.22426			 -0.12205
	115.75			  10.42006			  -0.37826			 -0.02384
	116.00			  10.57867			  -0.49916			 -0.31587
	116.25			  10.39095			  -0.42038			 -0.04753
	116.50			  10.32608			  -0.45537			 -0.16029
	116.75			  10.39551			  -0.35480			 -0.17603
	117.00			  10.39317			  -0.31163			 -0.31204
	117.25			  10.16688			  -0.32567			 -0.50352
	117.50			  10.19937			  -0.08869			 -0.40838
	117.75			  10.51906			  -0.15470			 -0.27462
	118.00			  10.67090			  -0.22112			 -0.25461
	118.25			  10.74863			  -0.08367			 -0.10625
	118.50			  10.52070			  -0.29173			 -0.19269
	118.75			  10.47195			  -0.33028			 -0.15057
	119.00			  10.74278			  -0.32944			 -0.11434
	119.25			  10.64658			  -0.17397			 -0.11238
	119.50			  10.61339			  -0.15805			 -0.24686
	119.75			  10.83477			  -0.13961			 -0.33147
	120.00			  11.01221			  0.13906			 -0.19771
	120.25			  11.30665			  0.16065			 0.03756
	120.50			  11.29321			  -0.04637			 -0.03227
	120.75			  11.24716			  0.00329			 -0.06222
	121.00			  11.09941			  -0.04260			 0.33500
	121.25			  11.09462			  -0.08241			 0.13624
	121.50			  11.37211			  0.12586			 0.39180
	121.75			  11.23430			  0.27547			 0.38094
	122.00			  10.95388			  0.28469			 0.21932
	122.25			  11.00122			  0.00916			 0.10868
	122.50			  11.01630			  -0.00279			 0.15984
	122.75			  10.92221			  -0.03505			 0.16965
	123.00			  10.82122			  -0.31645			 0.35366
	123.25			  10.88562			  -0.16140			 0.48259
	123.50			  11.14862			  0.36515			 0.48508
	123.75			  10.81385			  0.20423			 0.11585
	124.00			  10.49872			  0.43052			 0.24349
	124.25			  10.70620			  0.44079			 0.18424
	124.50			  10.83816			  0.39553			 0.37055
	124.75			  10.85722			  -0.00006			 0.45967
	125.00			  10.86224			  -0.04448			 0.70015
	125.25			  10.80812			  -0.04344			 0.58410
	125.50			  10.80964			  -0.20435			 0.42004
	125.75			  10.62777			  -0.30409			 0.41846
	126.00			  10.43969			  -0.09100			 0.35069
	126.25			  10.57318			  -0.04029			 0.33241
	126.50			  10.53706			  -0.21986			 0.49460
	126.75			  10.37295			  -0.23830			 0.21018
	127.00			  10.11346			  -0.20603			 0.16113
	127.25			  10.33379			  -0.40760			 0.40453
	127.50			  10.18733			  -0.50000			 0.36874
	127.75			  10.04882			  -0.31959			 0.23526
	128.00			  10.26565			  -0.58192			 0.45656
	128.25			  10.17564			  -0.30367			 0.19123
	128.50			  10.34268			  0.15415			 0.16103
	128.75			  10.07477			  -0.08618			 0.52298
	129.00			  9.99856			  -0.26407			 0.35151
	129.25			  10.24975			  -0.23955			 0.39683
	129.50			  10.39878			  -0.53562			 0.15582
	129.75			  10.30773			  -0.55909			 -0.06136
	130.00			  10.14373			  -0.80738			 0.06106
	130.25			  10.12246			  -0.84258			 0.16218
	130.50			  10.15238			  -0.91843			 0.19492
	130.75			  10.30971			  -0.81283			 0.16189
	131.00			  10.26565			  -0.60644			 -0.03930
	131.25			  10.33987			  -0.66783			 -0.01729
	131.50			  10.45407			  -0.96159			 -0.13779
	131.75			  10.22240			  -1.14786			 -0.13841
	132.00			  10.17249			  -1.29181			 -0.20881
	132.25			  10.30515			  -1.34524			 -0.07481
	132.50			  10.55623			  -1.31234			 -0.07783
	132.75			  10.35284			  -1.40558			 -0.11123
	133.00			  10.16629			  -1.15331			 0.10959
	133.25			  10.13415			  -1.06657			 0.60195
	133.50			  10.05969			  -0.89391			 0.31207
	133.75			  10.20673			  -0.91403			 0.31499
	134.00			  10.25805			  -0.86269			 0.14921
	134.25			  10.37599			  -0.72692			 0.02090
	134.50			  10.61912			  -0.60560			 -0.04672
	134.75			  10.63899			  -0.52870			 -0.02265
	135.00			  10.54618			  -0.53876			 -0.01039
	135.25			  10.41164			  -0.61000			 -0.16957
	135.50			  10.47780			  -0.37177			 -0.39776
	135.75			  10.42847			  -0.37889			 -0.20900
	136.00			  10.51368			  -0.41661			 -0.12042
	136.25			  10.54933			  -0.38874			 -0.10089
	136.50			  10.30913			  -0.36150			 -0.10424
	136.75			  10.23420			  -0.72797			 -0.25423
	137.00			  10.58954			  -0.52808			 -0.27275
	137.25			  10.50293			  -0.25988			 -0.42192
	137.50			  10.55155			  -0.15113			 -0.47883
	137.75			  10.42461			  -0.26239			 -0.28022
	138.00			  10.33367			  -0.32420			 -0.31558
	138.25			  10.34127			  -0.36087			 -0.00436
	138.50			  10.31661			  -0.31310			 -0.01437
	138.75			  10.33157			  -0.28481			 0.05881
	139.00			  10.15191			  -0.40320			 0.23670
	139.25			  10.47640			  -0.23620			 0.18391
	139.50			  10.63396			  -0.33154			 0.26508
	139.75			  10.55868			  -0.42897			 0.23248
	140.00			  10.67323			  -0.39922			 0.18152
	140.25			  10.59878			  -0.66469			 0.41123
	140.50			  10.51824			  -0.50230			 0.32423
	140.75			  10.44004			  -0.85683			 0.32619
	141.00			  10.67662			  -0.97689			 0.10710
	141.25			  10.74243			  -0.92304			 -0.17302
	141.50			  10.74138			  -1.10009			 -0.51161
	141.75			  10.94044			  -0.98862			 -0.19297
	142.00			  10.91157			  -0.86353			 0.01014
	142.25			  10.96569			  -0.88972			 0.10686
	142.50			  10.96370			  -1.04058			 0.17496
	142.75			  10.89497			  -0.96767			 0.42540
	143.00			  11.15692			  -0.71435			 0.51068
	143.25			  11.25113			  -0.83231			 0.18281
	143.50			  11.21688			  -0.70136			 0.09767
	143.75			  11.19327			  -0.61021			 0.20659
	144.00			  11.07440			  -0.76170			 0.18128
	144.25			  11.21747			  -0.89245			 0.17625
	144.50			  11.25347			  -0.62865			 0.11160
	144.75			  10.87323			  -0.49350			 0.19161
	145.00			  10.90491			  -0.32232			 0.24450
	145.25			  11.01455			  -0.24563			 0.12815
	145.50			  10.84074			  -0.52472			 0.02770
	145.75			  11.01396			  -0.23746			 -0.02667
	146.00			  10.82390			  -0.26281			 0.12571
	146.25			  10.78966			  -0.25757			 0.19903
	146.50			  10.81373			  -0.16622			 -0.22504
	146.75			  10.86481			  -0.20813			 0.04704
	147.00			  11.04763			  -0.52598			 -0.22762
	147.25			  10.76242			  -0.60204			 -0.19761
	147.50			  10.46681			  -0.82267			 0.01818
	147.75			  10.92957			  -0.94525			 -0.01930
	148.00			  11.12384			  -0.90208			 0.13677
	148.25			  11.08293			  -0.84907			 -0.06940
	148.50			  10.98755			  -0.88113			 -0.13119
	148.75			  10.77399			  -0.93037			 -0.01303
	149.00			  10.82566			  -0.80864			 0.04847
	149.25			  10.72233			  -0.38182			 0.05177
	149.50			  10.67522			  -0.43819			 0.06570
	149.75			  10.63197			  -0.38203			 0.15452
	150.00			  10.71204			  -0.31017			 0.14936
	150.25			  10.75658			  -0.15616			 0.03751
	150.50			  10.80555			  -0.34851			 0.40176
	150.75			  10.96230			  -0.28209			 0.19463
	151.00			  10.79784			  -0.14254			 -0.11405
	151.25			  10.74021			  0.13047			 -0.00748
	151.50			  10.79445			  -0.10629			 0.04804
	151.75			  10.64203			  0.04394			 0.11040
	152.00			  10.58253			  -0.28230			 0.12121
	152.25			  10.70433			  -0.27036			 0.13720
	152.50			  10.78673			  -0.22950			 0.39511
	152.75			  10.83103			  -0.12327			 0.33614
	153.00			  10.90573			  -0.00865			 0.20674
	153.25			  10.90596			  -0.32127			 -0.19044
	153.50			  11.03372			  -0.49581			 0.04617
	153.75			  10.88808			  -0.49099			 0.30528
	154.00			  11.05815			  -0.58130			 0.29848
	154.25			  10.99561			  -0.94734			 0.21028
	154.50			  11.10151			  -0.63808			 0.02603
	154.75			  11.09240			  -0.49874			 -0.01729
	155.00			  11.11951			  -0.42624			 -0.18718
	155.25			  11.06902			  -0.43337			 -0.24375
	155.50			  10.90152			  -0.36674			 -0.15387
	155.75			  10.89521			  -0.54505			 0.16146
	156.00			  10.86867			  -0.62341			 0.31437
	156.25			  11.04868			  -0.83818			 -0.09678
	156.50			  11.22483			  -0.97982			 0.28652
	156.75			  11.22577			  -0.83818			 0.34825
	157.00			  11.25417			  -0.72357			 0.16151
	157.25			  11.23313			  -0.94671			 0.28518
	157.50			  11.41372			  -0.82519			 0.29350
	157.75			  11.01163			  -0.81115			 0.30322
	158.00			  10.85090			  -0.96222			 0.04254
	158.25			  10.88609			  -1.03723			 -0.27002
	158.50			  10.85476			  -0.92890			 -0.01250
	158.75			  10.87124			  -0.71058			 0.12212
	159.00			  10.96966			  -0.76149			 0.04613
	159.25			  10.93869			  -0.74117			 -0.04246
	159.50			  11.02343			  -0.51928			 0.19578
	159.75			  10.69848			  -0.41703			 0.02105
	160.00			  10.62987			  -0.45139			 0.08738
	160.25			  10.58931			  -0.30283			 -0.00259
	160.50			  10.75880			  -0.16517			 -0.21221
	160.75			  10.61222			  -0.08618			 -0.25361
	161.00			  10.69053			  -0.27916			 -0.21293
	161.25			  10.64355			  -0.27413			 0.14715
	161.50			  10.69603			  -0.42876			 0.16199
	161.75			  10.94021			  -0.38057			 0.38510
	162.00			  10.84716			  -0.41179			 0.02239
	162.25			  10.70292			  -0.52703			 -0.28065
	162.50			  10.62087			  -0.41661			 -0.29591
	162.75			  10.59796			  -0.53876			 -0.57464
	163.00			  10.79047			  -0.47046			 -0.74190
	163.25			  10.67709			  -0.24710			 -0.37871
	163.50			  10.37470			  -0.39502			 -0.33755
	163.75			  10.29276			  -0.50147			 -0.49395
	164.00			  9.94677			  -0.28335			 -0.90060
	164.25			  10.17459			  -0.30765			 -0.72587
	164.50			  10.30597			  -0.45348			 -0.50529
	164.75			  10.36687			  -0.28921			 -0.37986
	165.00			  10.30644			  -0.41367			 -0.12822
	165.25			  10.10118			  -0.21420			 -0.59665
	165.50			  10.10352			  0.11350			 -0.59670
	165.75			  9.94000			  0.16253			 -0.46840